42
isomero_12_13
C             0.700000             1.212436             0.001860
C            -0.700000             1.212436             0.029110
C            -1.400000             0.000000             0.097382
C            -0.700000            -1.212436             0.076464
C             0.700000            -1.212436             0.024368
C             1.400000            -0.000000             0.068212
H             1.250000             2.165064             0.013785
H            -1.250000             2.165064             0.062981
C             2.800000             0.000000             0.085701
C             1.400000            -2.424871             0.089980
C             2.800000            -2.424871             0.034837
C             3.500000            -1.212436             0.048631
H             3.350000             0.952628             0.067952
C             4.900000            -1.212436             0.070412
C             3.500000            -3.637307             0.046088
C             4.900000            -3.637307             0.036427
N             5.600000            -2.424871             0.028027
H             5.450000            -0.259808             0.007620
B             7.000000            -2.424871             0.044462
C             5.600000            -4.849742             0.016571
C             7.000000            -4.849742             0.039875
C             7.700000            -3.637307             0.092058
H             7.550000            -1.472243             0.051133
H             7.550000            -5.802370             0.091414
H             8.800000            -3.637307             0.009193
C            -2.800000             0.000000             0.099304
C            -3.500000            -1.212436             0.009643
C            -2.800000            -2.424871             0.031315
C            -1.400000            -2.424871             0.078538
H            -3.350000             0.952628             0.060240
H            -4.600000            -1.212436             0.046591
H            -3.350000            -3.377499             0.029813
C            -0.700000            -3.637307             0.013317
C             0.700000            -3.637307             0.029501
H            -1.250000            -4.589935             0.016663
C             1.400000            -4.849742             0.031710
C             2.800000            -4.849742             0.010984
H             0.850000            -5.802370             0.083209
C             3.500000            -6.062178             0.097159
C             4.900000            -6.062178             0.021827
H             2.950000            -7.014806             0.070608
H             5.450000            -7.014806             0.003901
