42
isomero_2_1
N             0.700000             1.212436             0.077311
B            -0.700000             1.212436             0.088168
C            -1.400000             0.000000             0.073409
C            -0.700000            -1.212436             0.040643
C             0.700000            -1.212436             0.060418
C             1.400000            -0.000000             0.064111
H             1.250000             2.165064             0.012747
H            -1.250000             2.165064             0.049619
C             2.800000             0.000000             0.031047
C             1.400000            -2.424871             0.057857
C             2.800000            -2.424871             0.094361
C             3.500000            -1.212436             0.042694
H             3.350000             0.952628             0.003313
C             4.900000            -1.212436             0.092943
C             3.500000            -3.637307             0.092498
C             4.900000            -3.637307             0.035831
C             5.600000            -2.424871             0.025999
H             5.450000            -0.259808             0.078686
C             7.000000            -2.424871             0.051158
C             5.600000            -4.849742             0.056253
C             7.000000            -4.849742             0.068479
C             7.700000            -3.637307             0.009240
H             7.550000            -1.472243             0.087258
H             7.550000            -5.802370             0.094294
H             8.800000            -3.637307             0.009659
C            -2.800000             0.000000             0.084588
C            -3.500000            -1.212436             0.090940
C            -2.800000            -2.424871             0.001134
C            -1.400000            -2.424871             0.052368
H            -3.350000             0.952628             0.065035
H            -4.600000            -1.212436             0.038515
H            -3.350000            -3.377499             0.064930
C            -0.700000            -3.637307             0.076285
C             0.700000            -3.637307             0.057569
H            -1.250000            -4.589935             0.063192
C             1.400000            -4.849742             0.027820
C             2.800000            -4.849742             0.083984
H             0.850000            -5.802370             0.042683
C             3.500000            -6.062178             0.063162
C             4.900000            -6.062178             0.083347
H             2.950000            -7.014806             0.027019
H             5.450000            -7.014806             0.040080
