42
isomero_5_10
C             0.700000             1.212436             0.015662
C            -0.700000             1.212436             0.043465
B            -1.400000             0.000000             0.083224
N            -0.700000            -1.212436             0.035991
C             0.700000            -1.212436             0.007624
C             1.400000            -0.000000             0.055693
H             1.250000             2.165064             0.027393
H            -1.250000             2.165064             0.013205
C             2.800000             0.000000             0.069965
C             1.400000            -2.424871             0.048590
C             2.800000            -2.424871             0.018272
C             3.500000            -1.212436             0.010121
H             3.350000             0.952628             0.020158
C             4.900000            -1.212436             0.013475
C             3.500000            -3.637307             0.032379
C             4.900000            -3.637307             0.095055
C             5.600000            -2.424871             0.053213
H             5.450000            -0.259808             0.024769
C             7.000000            -2.424871             0.043728
C             5.600000            -4.849742             0.066909
C             7.000000            -4.849742             0.054770
C             7.700000            -3.637307             0.060905
H             7.550000            -1.472243             0.086313
H             7.550000            -5.802370             0.038070
H             8.800000            -3.637307             0.074896
C            -2.800000             0.000000             0.015670
C            -3.500000            -1.212436             0.005812
C            -2.800000            -2.424871             0.033971
C            -1.400000            -2.424871             0.081718
H            -3.350000             0.952628             0.037755
H            -4.600000            -1.212436             0.097260
H            -3.350000            -3.377499             0.060532
C            -0.700000            -3.637307             0.033824
C             0.700000            -3.637307             0.092798
H            -1.250000            -4.589935             0.089842
C             1.400000            -4.849742             0.085071
C             2.800000            -4.849742             0.025679
H             0.850000            -5.802370             0.028550
C             3.500000            -6.062178             0.077995
C             4.900000            -6.062178             0.070140
H             2.950000            -7.014806             0.049251
H             5.450000            -7.014806             0.096767
