42
isomero_4_9
C             0.700000             1.212436             0.095354
C            -0.700000             1.212436             0.016280
C            -1.400000             0.000000             0.097046
C            -0.700000            -1.212436             0.059701
N             0.700000            -1.212436             0.024023
B             1.400000            -0.000000             0.007030
H             1.250000             2.165064             0.030004
H            -1.250000             2.165064             0.081354
C             2.800000             0.000000             0.007671
C             1.400000            -2.424871             0.035447
C             2.800000            -2.424871             0.013201
C             3.500000            -1.212436             0.015818
H             3.350000             0.952628             0.006215
C             4.900000            -1.212436             0.070184
C             3.500000            -3.637307             0.008648
C             4.900000            -3.637307             0.061679
C             5.600000            -2.424871             0.017377
H             5.450000            -0.259808             0.065140
C             7.000000            -2.424871             0.049870
C             5.600000            -4.849742             0.028451
C             7.000000            -4.849742             0.083056
C             7.700000            -3.637307             0.081836
H             7.550000            -1.472243             0.093817
H             7.550000            -5.802370             0.000033
H             8.800000            -3.637307             0.064039
C            -2.800000             0.000000             0.000736
C            -3.500000            -1.212436             0.010642
C            -2.800000            -2.424871             0.010679
C            -1.400000            -2.424871             0.036711
H            -3.350000             0.952628             0.023961
H            -4.600000            -1.212436             0.034614
H            -3.350000            -3.377499             0.024962
C            -0.700000            -3.637307             0.038706
C             0.700000            -3.637307             0.042104
H            -1.250000            -4.589935             0.064008
C             1.400000            -4.849742             0.078755
C             2.800000            -4.849742             0.026999
H             0.850000            -5.802370             0.084398
C             3.500000            -6.062178             0.074047
C             4.900000            -6.062178             0.082610
H             2.950000            -7.014806             0.018219
H             5.450000            -7.014806             0.006544
