42
isomero_5_2
C             0.700000             1.212436             0.061035
N            -0.700000             1.212436             0.070155
B            -1.400000             0.000000             0.011162
C            -0.700000            -1.212436             0.009582
C             0.700000            -1.212436             0.059783
C             1.400000            -0.000000             0.081223
H             1.250000             2.165064             0.081458
H            -1.250000             2.165064             0.008944
C             2.800000             0.000000             0.073128
C             1.400000            -2.424871             0.090386
C             2.800000            -2.424871             0.045223
C             3.500000            -1.212436             0.007069
H             3.350000             0.952628             0.024128
C             4.900000            -1.212436             0.073187
C             3.500000            -3.637307             0.004049
C             4.900000            -3.637307             0.042452
C             5.600000            -2.424871             0.054022
H             5.450000            -0.259808             0.095383
C             7.000000            -2.424871             0.020891
C             5.600000            -4.849742             0.011633
C             7.000000            -4.849742             0.064622
C             7.700000            -3.637307             0.010841
H             7.550000            -1.472243             0.098350
H             7.550000            -5.802370             0.024834
H             8.800000            -3.637307             0.060636
C            -2.800000             0.000000             0.081670
C            -3.500000            -1.212436             0.083005
C            -2.800000            -2.424871             0.048904
C            -1.400000            -2.424871             0.076073
H            -3.350000             0.952628             0.091511
H            -4.600000            -1.212436             0.090097
H            -3.350000            -3.377499             0.021424
C            -0.700000            -3.637307             0.054706
C             0.700000            -3.637307             0.078471
H            -1.250000            -4.589935             0.019444
C             1.400000            -4.849742             0.074689
C             2.800000            -4.849742             0.047556
H             0.850000            -5.802370             0.058326
C             3.500000            -6.062178             0.026055
C             4.900000            -6.062178             0.008482
H             2.950000            -7.014806             0.029813
H             5.450000            -7.014806             0.091713
