42
isomero_10_9
C             0.700000             1.212436             0.001439
C            -0.700000             1.212436             0.007464
C            -1.400000             0.000000             0.059107
B            -0.700000            -1.212436             0.044600
N             0.700000            -1.212436             0.092662
C             1.400000            -0.000000             0.009489
H             1.250000             2.165064             0.037542
H            -1.250000             2.165064             0.054600
C             2.800000             0.000000             0.011168
C             1.400000            -2.424871             0.090446
C             2.800000            -2.424871             0.063328
C             3.500000            -1.212436             0.090541
H             3.350000             0.952628             0.063055
C             4.900000            -1.212436             0.001423
C             3.500000            -3.637307             0.031648
C             4.900000            -3.637307             0.011187
C             5.600000            -2.424871             0.062946
H             5.450000            -0.259808             0.006071
C             7.000000            -2.424871             0.067399
C             5.600000            -4.849742             0.047744
C             7.000000            -4.849742             0.030555
C             7.700000            -3.637307             0.051633
H             7.550000            -1.472243             0.070703
H             7.550000            -5.802370             0.081361
H             8.800000            -3.637307             0.031581
C            -2.800000             0.000000             0.031130
C            -3.500000            -1.212436             0.034498
C            -2.800000            -2.424871             0.066630
C            -1.400000            -2.424871             0.086107
H            -3.350000             0.952628             0.076178
H            -4.600000            -1.212436             0.087584
H            -3.350000            -3.377499             0.087124
C            -0.700000            -3.637307             0.017279
C             0.700000            -3.637307             0.085022
H            -1.250000            -4.589935             0.095959
C             1.400000            -4.849742             0.077021
C             2.800000            -4.849742             0.087502
H             0.850000            -5.802370             0.006741
C             3.500000            -6.062178             0.064679
C             4.900000            -6.062178             0.032410
H             2.950000            -7.014806             0.064035
H             5.450000            -7.014806             0.087975
