42
isomero_3_4
C             0.700000             1.212436             0.023077
C            -0.700000             1.212436             0.065795
C            -1.400000             0.000000             0.056295
C            -0.700000            -1.212436             0.029183
C             0.700000            -1.212436             0.062230
N             1.400000            -0.000000             0.071591
H             1.250000             2.165064             0.028073
H            -1.250000             2.165064             0.041227
B             2.800000             0.000000             0.036221
C             1.400000            -2.424871             0.078139
C             2.800000            -2.424871             0.013549
C             3.500000            -1.212436             0.090207
H             3.350000             0.952628             0.028964
C             4.900000            -1.212436             0.049956
C             3.500000            -3.637307             0.078359
C             4.900000            -3.637307             0.067706
C             5.600000            -2.424871             0.014981
H             5.450000            -0.259808             0.069662
C             7.000000            -2.424871             0.012901
C             5.600000            -4.849742             0.094595
C             7.000000            -4.849742             0.088641
C             7.700000            -3.637307             0.051500
H             7.550000            -1.472243             0.067941
H             7.550000            -5.802370             0.097679
H             8.800000            -3.637307             0.012546
C            -2.800000             0.000000             0.075224
C            -3.500000            -1.212436             0.082705
C            -2.800000            -2.424871             0.078143
C            -1.400000            -2.424871             0.019088
H            -3.350000             0.952628             0.042864
H            -4.600000            -1.212436             0.001446
H            -3.350000            -3.377499             0.032529
C            -0.700000            -3.637307             0.013470
C             0.700000            -3.637307             0.045052
H            -1.250000            -4.589935             0.057227
C             1.400000            -4.849742             0.079202
C             2.800000            -4.849742             0.041974
H             0.850000            -5.802370             0.053254
C             3.500000            -6.062178             0.092570
C             4.900000            -6.062178             0.089908
H             2.950000            -7.014806             0.054483
H             5.450000            -7.014806             0.090112
