42
isomero_7_13
C             0.700000             1.212436             0.096661
C            -0.700000             1.212436             0.006734
C            -1.400000             0.000000             0.043753
C            -0.700000            -1.212436             0.032084
C             0.700000            -1.212436             0.013405
C             1.400000            -0.000000             0.013459
H             1.250000             2.165064             0.080595
H            -1.250000             2.165064             0.052476
C             2.800000             0.000000             0.094426
C             1.400000            -2.424871             0.098834
C             2.800000            -2.424871             0.040989
C             3.500000            -1.212436             0.037119
H             3.350000             0.952628             0.022685
B             4.900000            -1.212436             0.044603
C             3.500000            -3.637307             0.026622
C             4.900000            -3.637307             0.045910
N             5.600000            -2.424871             0.043291
H             5.450000            -0.259808             0.025962
C             7.000000            -2.424871             0.013371
C             5.600000            -4.849742             0.041923
C             7.000000            -4.849742             0.050686
C             7.700000            -3.637307             0.032432
H             7.550000            -1.472243             0.068469
H             7.550000            -5.802370             0.044309
H             8.800000            -3.637307             0.043566
C            -2.800000             0.000000             0.079302
C            -3.500000            -1.212436             0.081556
C            -2.800000            -2.424871             0.075211
C            -1.400000            -2.424871             0.078926
H            -3.350000             0.952628             0.050127
H            -4.600000            -1.212436             0.055518
H            -3.350000            -3.377499             0.063075
C            -0.700000            -3.637307             0.009799
C             0.700000            -3.637307             0.024568
H            -1.250000            -4.589935             0.061573
C             1.400000            -4.849742             0.030496
C             2.800000            -4.849742             0.076697
H             0.850000            -5.802370             0.026723
C             3.500000            -6.062178             0.003951
C             4.900000            -6.062178             0.029656
H             2.950000            -7.014806             0.055636
H             5.450000            -7.014806             0.096907
