42
isomero_18_12
C             0.700000             1.212436             0.059194
C            -0.700000             1.212436             0.035965
C            -1.400000             0.000000             0.071931
C            -0.700000            -1.212436             0.052355
C             0.700000            -1.212436             0.026084
C             1.400000            -0.000000             0.049308
H             1.250000             2.165064             0.085584
H            -1.250000             2.165064             0.072441
C             2.800000             0.000000             0.019911
C             1.400000            -2.424871             0.015729
C             2.800000            -2.424871             0.037048
C             3.500000            -1.212436             0.086227
H             3.350000             0.952628             0.068476
C             4.900000            -1.212436             0.063420
C             3.500000            -3.637307             0.014132
C             4.900000            -3.637307             0.007930
C             5.600000            -2.424871             0.087615
H             5.450000            -0.259808             0.042043
N             7.000000            -2.424871             0.048766
C             5.600000            -4.849742             0.046033
C             7.000000            -4.849742             0.051568
B             7.700000            -3.637307             0.027199
H             7.550000            -1.472243             0.023158
H             7.550000            -5.802370             0.089953
H             8.800000            -3.637307             0.090870
C            -2.800000             0.000000             0.060364
C            -3.500000            -1.212436             0.036524
C            -2.800000            -2.424871             0.059859
C            -1.400000            -2.424871             0.066849
H            -3.350000             0.952628             0.089456
H            -4.600000            -1.212436             0.008734
H            -3.350000            -3.377499             0.053901
C            -0.700000            -3.637307             0.042845
C             0.700000            -3.637307             0.061715
H            -1.250000            -4.589935             0.055888
C             1.400000            -4.849742             0.022585
C             2.800000            -4.849742             0.010452
H             0.850000            -5.802370             0.000998
C             3.500000            -6.062178             0.005915
C             4.900000            -6.062178             0.032265
H             2.950000            -7.014806             0.077948
H             5.450000            -7.014806             0.033548
