42
isomero_2_5
C             0.700000             1.212436             0.055425
B            -0.700000             1.212436             0.044387
N            -1.400000             0.000000             0.009038
C            -0.700000            -1.212436             0.074438
C             0.700000            -1.212436             0.003262
C             1.400000            -0.000000             0.042974
H             1.250000             2.165064             0.003726
H            -1.250000             2.165064             0.097580
C             2.800000             0.000000             0.052234
C             1.400000            -2.424871             0.090963
C             2.800000            -2.424871             0.038325
C             3.500000            -1.212436             0.088445
H             3.350000             0.952628             0.025502
C             4.900000            -1.212436             0.090905
C             3.500000            -3.637307             0.089456
C             4.900000            -3.637307             0.039852
C             5.600000            -2.424871             0.062502
H             5.450000            -0.259808             0.056760
C             7.000000            -2.424871             0.089451
C             5.600000            -4.849742             0.021417
C             7.000000            -4.849742             0.000386
C             7.700000            -3.637307             0.088058
H             7.550000            -1.472243             0.023512
H             7.550000            -5.802370             0.024486
H             8.800000            -3.637307             0.064092
C            -2.800000             0.000000             0.030452
C            -3.500000            -1.212436             0.082562
C            -2.800000            -2.424871             0.088369
C            -1.400000            -2.424871             0.094537
H            -3.350000             0.952628             0.039080
H            -4.600000            -1.212436             0.080132
H            -3.350000            -3.377499             0.015711
C            -0.700000            -3.637307             0.062517
C             0.700000            -3.637307             0.069899
H            -1.250000            -4.589935             0.008587
C             1.400000            -4.849742             0.053118
C             2.800000            -4.849742             0.088857
H             0.850000            -5.802370             0.026367
C             3.500000            -6.062178             0.023479
C             4.900000            -6.062178             0.083966
H             2.950000            -7.014806             0.049554
H             5.450000            -7.014806             0.015237
