42
isomero_8_7
C             0.700000             1.212436             0.056773
C            -0.700000             1.212436             0.018827
C            -1.400000             0.000000             0.032420
C            -0.700000            -1.212436             0.071604
C             0.700000            -1.212436             0.055293
C             1.400000            -0.000000             0.014228
H             1.250000             2.165064             0.038036
H            -1.250000             2.165064             0.039657
C             2.800000             0.000000             0.057674
C             1.400000            -2.424871             0.001940
C             2.800000            -2.424871             0.057758
B             3.500000            -1.212436             0.093220
H             3.350000             0.952628             0.010687
N             4.900000            -1.212436             0.073215
C             3.500000            -3.637307             0.097052
C             4.900000            -3.637307             0.060889
C             5.600000            -2.424871             0.071967
H             5.450000            -0.259808             0.030275
C             7.000000            -2.424871             0.045902
C             5.600000            -4.849742             0.004803
C             7.000000            -4.849742             0.038535
C             7.700000            -3.637307             0.036172
H             7.550000            -1.472243             0.028758
H             7.550000            -5.802370             0.081671
H             8.800000            -3.637307             0.045053
C            -2.800000             0.000000             0.080663
C            -3.500000            -1.212436             0.079017
C            -2.800000            -2.424871             0.028296
C            -1.400000            -2.424871             0.006831
H            -3.350000             0.952628             0.005493
H            -4.600000            -1.212436             0.063752
H            -3.350000            -3.377499             0.042429
C            -0.700000            -3.637307             0.090553
C             0.700000            -3.637307             0.041732
H            -1.250000            -4.589935             0.015406
C             1.400000            -4.849742             0.054000
C             2.800000            -4.849742             0.093709
H             0.850000            -5.802370             0.066096
C             3.500000            -6.062178             0.039466
C             4.900000            -6.062178             0.025899
H             2.950000            -7.014806             0.084791
H             5.450000            -7.014806             0.094506
