42
isomero_1_2
B             0.700000             1.212436             0.047748
N            -0.700000             1.212436             0.006659
C            -1.400000             0.000000             0.041103
C            -0.700000            -1.212436             0.096909
C             0.700000            -1.212436             0.078072
C             1.400000            -0.000000             0.072902
H             1.250000             2.165064             0.076565
H            -1.250000             2.165064             0.075658
C             2.800000             0.000000             0.084327
C             1.400000            -2.424871             0.077016
C             2.800000            -2.424871             0.097866
C             3.500000            -1.212436             0.011136
H             3.350000             0.952628             0.039608
C             4.900000            -1.212436             0.049206
C             3.500000            -3.637307             0.025809
C             4.900000            -3.637307             0.003697
C             5.600000            -2.424871             0.097438
H             5.450000            -0.259808             0.072643
C             7.000000            -2.424871             0.014796
C             5.600000            -4.849742             0.014789
C             7.000000            -4.849742             0.070482
C             7.700000            -3.637307             0.038099
H             7.550000            -1.472243             0.007641
H             7.550000            -5.802370             0.041084
H             8.800000            -3.637307             0.014299
C            -2.800000             0.000000             0.079892
C            -3.500000            -1.212436             0.093025
C            -2.800000            -2.424871             0.000472
C            -1.400000            -2.424871             0.065004
H            -3.350000             0.952628             0.067853
H            -4.600000            -1.212436             0.025362
H            -3.350000            -3.377499             0.084318
C            -0.700000            -3.637307             0.029396
C             0.700000            -3.637307             0.002686
H            -1.250000            -4.589935             0.009331
C             1.400000            -4.849742             0.079788
C             2.800000            -4.849742             0.071140
H             0.850000            -5.802370             0.078341
C             3.500000            -6.062178             0.062392
C             4.900000            -6.062178             0.082542
H             2.950000            -7.014806             0.003502
H             5.450000            -7.014806             0.040547
