42
isomero_12_18
C             0.700000             1.212436             0.061630
C            -0.700000             1.212436             0.066936
C            -1.400000             0.000000             0.003720
C            -0.700000            -1.212436             0.000333
C             0.700000            -1.212436             0.014246
C             1.400000            -0.000000             0.086241
H             1.250000             2.165064             0.027604
H            -1.250000             2.165064             0.053169
C             2.800000             0.000000             0.052222
C             1.400000            -2.424871             0.056762
C             2.800000            -2.424871             0.033303
C             3.500000            -1.212436             0.041342
H             3.350000             0.952628             0.041435
C             4.900000            -1.212436             0.098392
C             3.500000            -3.637307             0.005774
C             4.900000            -3.637307             0.039654
C             5.600000            -2.424871             0.079132
H             5.450000            -0.259808             0.059419
B             7.000000            -2.424871             0.030956
C             5.600000            -4.849742             0.090180
C             7.000000            -4.849742             0.009313
N             7.700000            -3.637307             0.031903
H             7.550000            -1.472243             0.088696
H             7.550000            -5.802370             0.065743
H             8.800000            -3.637307             0.068452
C            -2.800000             0.000000             0.047395
C            -3.500000            -1.212436             0.014124
C            -2.800000            -2.424871             0.095092
C            -1.400000            -2.424871             0.088263
H            -3.350000             0.952628             0.043744
H            -4.600000            -1.212436             0.083496
H            -3.350000            -3.377499             0.032514
C            -0.700000            -3.637307             0.036764
C             0.700000            -3.637307             0.079484
H            -1.250000            -4.589935             0.009931
C             1.400000            -4.849742             0.095178
C             2.800000            -4.849742             0.000147
H             0.850000            -5.802370             0.029540
C             3.500000            -6.062178             0.004845
C             4.900000            -6.062178             0.044274
H             2.950000            -7.014806             0.078985
H             5.450000            -7.014806             0.091352
