42
isomero_9_15
C             0.700000             1.212436             0.067844
C            -0.700000             1.212436             0.011479
C            -1.400000             0.000000             0.023606
C            -0.700000            -1.212436             0.028908
B             0.700000            -1.212436             0.017276
C             1.400000            -0.000000             0.032371
H             1.250000             2.165064             0.080111
H            -1.250000             2.165064             0.029963
C             2.800000             0.000000             0.077563
N             1.400000            -2.424871             0.055277
C             2.800000            -2.424871             0.055469
C             3.500000            -1.212436             0.073065
H             3.350000             0.952628             0.077362
C             4.900000            -1.212436             0.090085
C             3.500000            -3.637307             0.013817
C             4.900000            -3.637307             0.079408
C             5.600000            -2.424871             0.018941
H             5.450000            -0.259808             0.002897
C             7.000000            -2.424871             0.012739
C             5.600000            -4.849742             0.013374
C             7.000000            -4.849742             0.012831
C             7.700000            -3.637307             0.093526
H             7.550000            -1.472243             0.027323
H             7.550000            -5.802370             0.094268
H             8.800000            -3.637307             0.063815
C            -2.800000             0.000000             0.087253
C            -3.500000            -1.212436             0.036707
C            -2.800000            -2.424871             0.023620
C            -1.400000            -2.424871             0.018732
H            -3.350000             0.952628             0.054565
H            -4.600000            -1.212436             0.025512
H            -3.350000            -3.377499             0.030582
C            -0.700000            -3.637307             0.001555
C             0.700000            -3.637307             0.058749
H            -1.250000            -4.589935             0.096256
C             1.400000            -4.849742             0.084985
C             2.800000            -4.849742             0.000794
H             0.850000            -5.802370             0.063403
C             3.500000            -6.062178             0.035929
C             4.900000            -6.062178             0.011406
H             2.950000            -7.014806             0.054082
H             5.450000            -7.014806             0.041642
