64
isomero_11_6
C             0.700000             1.212436             0.059916
C            -0.700000             1.212436             0.087797
C            -1.400000             0.000000             0.011591
C            -0.700000            -1.212436             0.098574
C             0.700000            -1.212436             0.085725
C             1.400000            -0.000000             0.044161
H             1.250000             2.165064             0.083162
H            -1.250000             2.165064             0.029264
C             2.800000             0.000000             0.051094
C             1.400000            -2.424871             0.075124
C             2.800000            -2.424871             0.038033
C             3.500000            -1.212436             0.026627
H             3.350000             0.952628             0.026260
C             4.900000            -1.212436             0.058262
C             3.500000            -3.637307             0.044312
C             4.900000            -3.637307             0.044648
C             5.600000            -2.424871             0.097870
H             5.450000            -0.259808             0.079136
C             7.000000            -2.424871             0.021147
C             5.600000            -4.849742             0.094857
C             7.000000            -4.849742             0.005855
C             7.700000            -3.637307             0.002395
H             7.550000            -1.472243             0.020848
C             9.100000            -3.637307             0.029429
C             7.700000            -6.062178             0.036603
C             9.100000            -6.062178             0.085006
C             9.800000            -4.849742             0.094176
H             9.650000            -2.684679             0.006380
H             9.650000            -7.014806             0.040958
H            10.900000            -4.849742             0.094745
N            -2.800000             0.000000             0.022286
B            -3.500000            -1.212436             0.004757
C            -2.800000            -2.424871             0.000722
C            -1.400000            -2.424871             0.021997
H            -3.350000             0.952628             0.067344
C            -0.700000            -3.637307             0.013185
C             0.700000            -3.637307             0.070435
C             1.400000            -4.849742             0.038489
C             2.800000            -4.849742             0.036216
C             3.500000            -6.062178             0.096260
C             4.900000            -6.062178             0.008757
C             5.600000            -7.274613             0.025566
C             7.000000            -7.274613             0.041262
H             7.550000            -8.227241             0.070393
C            -4.900000            -1.212436             0.074798
C            -5.600000            -2.424871             0.003744
C            -4.900000            -3.637307             0.078134
C            -3.500000            -3.637307             0.031697
H            -5.450000            -0.259808             0.041442
H            -6.700000            -2.424871             0.008790
H            -5.450000            -4.589935             0.034938
C            -2.800000            -4.849742             0.012942
C            -1.400000            -4.849742             0.030433
H            -3.350000            -5.802370             0.094622
C            -0.700000            -6.062178             0.077013
C             0.700000            -6.062178             0.082131
H            -1.250000            -7.014806             0.011478
C             1.400000            -7.274613             0.020331
C             2.800000            -7.274613             0.059260
H             0.850000            -8.227241             0.001069
C             3.500000            -8.487049             0.027181
C             4.900000            -8.487049             0.066090
H             2.950000            -9.439677             0.020075
H             5.450000            -9.439677             0.068572
