64
isomero_9_10
C             0.700000             1.212436             0.073894
C            -0.700000             1.212436             0.005470
C            -1.400000             0.000000             0.024326
N            -0.700000            -1.212436             0.072909
B             0.700000            -1.212436             0.043622
C             1.400000            -0.000000             0.000149
H             1.250000             2.165064             0.021948
H            -1.250000             2.165064             0.038809
C             2.800000             0.000000             0.072435
C             1.400000            -2.424871             0.076710
C             2.800000            -2.424871             0.024069
C             3.500000            -1.212436             0.003548
H             3.350000             0.952628             0.095230
C             4.900000            -1.212436             0.053048
C             3.500000            -3.637307             0.016042
C             4.900000            -3.637307             0.036275
C             5.600000            -2.424871             0.027761
H             5.450000            -0.259808             0.058070
C             7.000000            -2.424871             0.064087
C             5.600000            -4.849742             0.011889
C             7.000000            -4.849742             0.003129
C             7.700000            -3.637307             0.048083
H             7.550000            -1.472243             0.015410
C             9.100000            -3.637307             0.092660
C             7.700000            -6.062178             0.041223
C             9.100000            -6.062178             0.040384
C             9.800000            -4.849742             0.015317
H             9.650000            -2.684679             0.087507
H             9.650000            -7.014806             0.087734
H            10.900000            -4.849742             0.009284
C            -2.800000             0.000000             0.033259
C            -3.500000            -1.212436             0.069349
C            -2.800000            -2.424871             0.017090
C            -1.400000            -2.424871             0.034592
H            -3.350000             0.952628             0.036507
C            -0.700000            -3.637307             0.034166
C             0.700000            -3.637307             0.091539
C             1.400000            -4.849742             0.017121
C             2.800000            -4.849742             0.019337
C             3.500000            -6.062178             0.096621
C             4.900000            -6.062178             0.046104
C             5.600000            -7.274613             0.073488
C             7.000000            -7.274613             0.008680
H             7.550000            -8.227241             0.021534
C            -4.900000            -1.212436             0.057057
C            -5.600000            -2.424871             0.032357
C            -4.900000            -3.637307             0.095726
C            -3.500000            -3.637307             0.059039
H            -5.450000            -0.259808             0.012014
H            -6.700000            -2.424871             0.027672
H            -5.450000            -4.589935             0.014567
C            -2.800000            -4.849742             0.071914
C            -1.400000            -4.849742             0.075515
H            -3.350000            -5.802370             0.084793
C            -0.700000            -6.062178             0.016088
C             0.700000            -6.062178             0.042693
H            -1.250000            -7.014806             0.080166
C             1.400000            -7.274613             0.020638
C             2.800000            -7.274613             0.065694
H             0.850000            -8.227241             0.029016
C             3.500000            -8.487049             0.068580
C             4.900000            -8.487049             0.030879
H             2.950000            -9.439677             0.094270
H             5.450000            -9.439677             0.023891
