64
isomero_6_11
C             0.700000             1.212436             0.012417
C            -0.700000             1.212436             0.069997
C            -1.400000             0.000000             0.075841
C            -0.700000            -1.212436             0.047975
C             0.700000            -1.212436             0.068312
C             1.400000            -0.000000             0.071805
H             1.250000             2.165064             0.021278
H            -1.250000             2.165064             0.014042
C             2.800000             0.000000             0.048069
C             1.400000            -2.424871             0.099941
C             2.800000            -2.424871             0.088080
C             3.500000            -1.212436             0.003893
H             3.350000             0.952628             0.094863
C             4.900000            -1.212436             0.089286
C             3.500000            -3.637307             0.021233
C             4.900000            -3.637307             0.098195
C             5.600000            -2.424871             0.025455
H             5.450000            -0.259808             0.062686
C             7.000000            -2.424871             0.051877
C             5.600000            -4.849742             0.049484
C             7.000000            -4.849742             0.024660
C             7.700000            -3.637307             0.006376
H             7.550000            -1.472243             0.016844
C             9.100000            -3.637307             0.066488
C             7.700000            -6.062178             0.070608
C             9.100000            -6.062178             0.085807
C             9.800000            -4.849742             0.026983
H             9.650000            -2.684679             0.002247
H             9.650000            -7.014806             0.055813
H            10.900000            -4.849742             0.019898
B            -2.800000             0.000000             0.092024
N            -3.500000            -1.212436             0.027510
C            -2.800000            -2.424871             0.022896
C            -1.400000            -2.424871             0.051815
H            -3.350000             0.952628             0.025606
C            -0.700000            -3.637307             0.001615
C             0.700000            -3.637307             0.097649
C             1.400000            -4.849742             0.089878
C             2.800000            -4.849742             0.095921
C             3.500000            -6.062178             0.084453
C             4.900000            -6.062178             0.038097
C             5.600000            -7.274613             0.008960
C             7.000000            -7.274613             0.073274
H             7.550000            -8.227241             0.068257
C            -4.900000            -1.212436             0.043517
C            -5.600000            -2.424871             0.014320
C            -4.900000            -3.637307             0.030711
C            -3.500000            -3.637307             0.068032
H            -5.450000            -0.259808             0.050395
H            -6.700000            -2.424871             0.073466
H            -5.450000            -4.589935             0.064802
C            -2.800000            -4.849742             0.006783
C            -1.400000            -4.849742             0.099470
H            -3.350000            -5.802370             0.018115
C            -0.700000            -6.062178             0.046046
C             0.700000            -6.062178             0.056074
H            -1.250000            -7.014806             0.065619
C             1.400000            -7.274613             0.081222
C             2.800000            -7.274613             0.077636
H             0.850000            -8.227241             0.029657
C             3.500000            -8.487049             0.018024
C             4.900000            -8.487049             0.084191
H             2.950000            -9.439677             0.065446
H             5.450000            -9.439677             0.060794
