64
isomero_7_8
C             0.700000             1.212436             0.047746
C            -0.700000             1.212436             0.061158
C            -1.400000             0.000000             0.037828
C            -0.700000            -1.212436             0.086634
C             0.700000            -1.212436             0.048026
C             1.400000            -0.000000             0.046102
H             1.250000             2.165064             0.030163
H            -1.250000             2.165064             0.055470
C             2.800000             0.000000             0.057596
C             1.400000            -2.424871             0.014419
C             2.800000            -2.424871             0.072122
N             3.500000            -1.212436             0.020009
H             3.350000             0.952628             0.027953
B             4.900000            -1.212436             0.069864
C             3.500000            -3.637307             0.019060
C             4.900000            -3.637307             0.042193
C             5.600000            -2.424871             0.020769
H             5.450000            -0.259808             0.013869
C             7.000000            -2.424871             0.081376
C             5.600000            -4.849742             0.032846
C             7.000000            -4.849742             0.048059
C             7.700000            -3.637307             0.006699
H             7.550000            -1.472243             0.008205
C             9.100000            -3.637307             0.031746
C             7.700000            -6.062178             0.031458
C             9.100000            -6.062178             0.033809
C             9.800000            -4.849742             0.065403
H             9.650000            -2.684679             0.042022
H             9.650000            -7.014806             0.083208
H            10.900000            -4.849742             0.087421
C            -2.800000             0.000000             0.054969
C            -3.500000            -1.212436             0.033801
C            -2.800000            -2.424871             0.054198
C            -1.400000            -2.424871             0.025072
H            -3.350000             0.952628             0.036817
C            -0.700000            -3.637307             0.084972
C             0.700000            -3.637307             0.086526
C             1.400000            -4.849742             0.007411
C             2.800000            -4.849742             0.094498
C             3.500000            -6.062178             0.001532
C             4.900000            -6.062178             0.007927
C             5.600000            -7.274613             0.075384
C             7.000000            -7.274613             0.037287
H             7.550000            -8.227241             0.020943
C            -4.900000            -1.212436             0.083626
C            -5.600000            -2.424871             0.085809
C            -4.900000            -3.637307             0.077272
C            -3.500000            -3.637307             0.034809
H            -5.450000            -0.259808             0.096761
H            -6.700000            -2.424871             0.032510
H            -5.450000            -4.589935             0.056411
C            -2.800000            -4.849742             0.022139
C            -1.400000            -4.849742             0.058708
H            -3.350000            -5.802370             0.031671
C            -0.700000            -6.062178             0.070495
C             0.700000            -6.062178             0.007177
H            -1.250000            -7.014806             0.009103
C             1.400000            -7.274613             0.018474
C             2.800000            -7.274613             0.019257
H             0.850000            -8.227241             0.015647
C             3.500000            -8.487049             0.027236
C             4.900000            -8.487049             0.018272
H             2.950000            -9.439677             0.003530
H             5.450000            -9.439677             0.007096
