64
isomero_16_15
C             0.700000             1.212436             0.018420
C            -0.700000             1.212436             0.069776
C            -1.400000             0.000000             0.012393
C            -0.700000            -1.212436             0.015134
C             0.700000            -1.212436             0.070200
C             1.400000            -0.000000             0.040110
H             1.250000             2.165064             0.024921
H            -1.250000             2.165064             0.029434
C             2.800000             0.000000             0.053291
B             1.400000            -2.424871             0.016354
N             2.800000            -2.424871             0.001916
C             3.500000            -1.212436             0.000125
H             3.350000             0.952628             0.050053
C             4.900000            -1.212436             0.091752
C             3.500000            -3.637307             0.094587
C             4.900000            -3.637307             0.034335
C             5.600000            -2.424871             0.054233
H             5.450000            -0.259808             0.034955
C             7.000000            -2.424871             0.050313
C             5.600000            -4.849742             0.008959
C             7.000000            -4.849742             0.027715
C             7.700000            -3.637307             0.037848
H             7.550000            -1.472243             0.078459
C             9.100000            -3.637307             0.014592
C             7.700000            -6.062178             0.039277
C             9.100000            -6.062178             0.092823
C             9.800000            -4.849742             0.024890
H             9.650000            -2.684679             0.073191
H             9.650000            -7.014806             0.030672
H            10.900000            -4.849742             0.047287
C            -2.800000             0.000000             0.065846
C            -3.500000            -1.212436             0.068370
C            -2.800000            -2.424871             0.043730
C            -1.400000            -2.424871             0.002349
H            -3.350000             0.952628             0.041076
C            -0.700000            -3.637307             0.084035
C             0.700000            -3.637307             0.091633
C             1.400000            -4.849742             0.057996
C             2.800000            -4.849742             0.084165
C             3.500000            -6.062178             0.035668
C             4.900000            -6.062178             0.085145
C             5.600000            -7.274613             0.089107
C             7.000000            -7.274613             0.062819
H             7.550000            -8.227241             0.039918
C            -4.900000            -1.212436             0.025098
C            -5.600000            -2.424871             0.099629
C            -4.900000            -3.637307             0.063727
C            -3.500000            -3.637307             0.075442
H            -5.450000            -0.259808             0.087980
H            -6.700000            -2.424871             0.046320
H            -5.450000            -4.589935             0.027451
C            -2.800000            -4.849742             0.047404
C            -1.400000            -4.849742             0.002993
H            -3.350000            -5.802370             0.022854
C            -0.700000            -6.062178             0.054036
C             0.700000            -6.062178             0.039956
H            -1.250000            -7.014806             0.075546
C             1.400000            -7.274613             0.083196
C             2.800000            -7.274613             0.055998
H             0.850000            -8.227241             0.056570
C             3.500000            -8.487049             0.059847
C             4.900000            -8.487049             0.056596
H             2.950000            -9.439677             0.047775
H             5.450000            -9.439677             0.034082
