64
isomero_23_22
C             0.700000             1.212436             0.094445
C            -0.700000             1.212436             0.032634
C            -1.400000             0.000000             0.093676
C            -0.700000            -1.212436             0.026147
C             0.700000            -1.212436             0.084227
C             1.400000            -0.000000             0.065062
H             1.250000             2.165064             0.063454
H            -1.250000             2.165064             0.029816
C             2.800000             0.000000             0.065323
C             1.400000            -2.424871             0.097922
C             2.800000            -2.424871             0.070130
C             3.500000            -1.212436             0.035389
H             3.350000             0.952628             0.074028
C             4.900000            -1.212436             0.029510
B             3.500000            -3.637307             0.047014
N             4.900000            -3.637307             0.075847
C             5.600000            -2.424871             0.054071
H             5.450000            -0.259808             0.080807
C             7.000000            -2.424871             0.015078
C             5.600000            -4.849742             0.020081
C             7.000000            -4.849742             0.076432
C             7.700000            -3.637307             0.029722
H             7.550000            -1.472243             0.049734
C             9.100000            -3.637307             0.063013
C             7.700000            -6.062178             0.042424
C             9.100000            -6.062178             0.019361
C             9.800000            -4.849742             0.006832
H             9.650000            -2.684679             0.010864
H             9.650000            -7.014806             0.043843
H            10.900000            -4.849742             0.038875
C            -2.800000             0.000000             0.025188
C            -3.500000            -1.212436             0.064199
C            -2.800000            -2.424871             0.064737
C            -1.400000            -2.424871             0.062215
H            -3.350000             0.952628             0.003024
C            -0.700000            -3.637307             0.024880
C             0.700000            -3.637307             0.071310
C             1.400000            -4.849742             0.073348
C             2.800000            -4.849742             0.088844
C             3.500000            -6.062178             0.053892
C             4.900000            -6.062178             0.019157
C             5.600000            -7.274613             0.077249
C             7.000000            -7.274613             0.061836
H             7.550000            -8.227241             0.093850
C            -4.900000            -1.212436             0.049189
C            -5.600000            -2.424871             0.035430
C            -4.900000            -3.637307             0.081424
C            -3.500000            -3.637307             0.032123
H            -5.450000            -0.259808             0.097618
H            -6.700000            -2.424871             0.037834
H            -5.450000            -4.589935             0.009275
C            -2.800000            -4.849742             0.002104
C            -1.400000            -4.849742             0.052925
H            -3.350000            -5.802370             0.009690
C            -0.700000            -6.062178             0.091483
C             0.700000            -6.062178             0.072357
H            -1.250000            -7.014806             0.045802
C             1.400000            -7.274613             0.027089
C             2.800000            -7.274613             0.083136
H             0.850000            -8.227241             0.005739
C             3.500000            -8.487049             0.055533
C             4.900000            -8.487049             0.059479
H             2.950000            -9.439677             0.030700
H             5.450000            -9.439677             0.036596
