64
isomero_8_15
C             0.700000             1.212436             0.046668
C            -0.700000             1.212436             0.092595
C            -1.400000             0.000000             0.088514
C            -0.700000            -1.212436             0.070696
C             0.700000            -1.212436             0.064340
C             1.400000            -0.000000             0.025654
H             1.250000             2.165064             0.070355
H            -1.250000             2.165064             0.073562
C             2.800000             0.000000             0.076379
C             1.400000            -2.424871             0.039475
N             2.800000            -2.424871             0.006228
B             3.500000            -1.212436             0.070026
H             3.350000             0.952628             0.039561
C             4.900000            -1.212436             0.083559
C             3.500000            -3.637307             0.024422
C             4.900000            -3.637307             0.096121
C             5.600000            -2.424871             0.090673
H             5.450000            -0.259808             0.031873
C             7.000000            -2.424871             0.076724
C             5.600000            -4.849742             0.075541
C             7.000000            -4.849742             0.059654
C             7.700000            -3.637307             0.014273
H             7.550000            -1.472243             0.004691
C             9.100000            -3.637307             0.086299
C             7.700000            -6.062178             0.059246
C             9.100000            -6.062178             0.007965
C             9.800000            -4.849742             0.024711
H             9.650000            -2.684679             0.084698
H             9.650000            -7.014806             0.007229
H            10.900000            -4.849742             0.081458
C            -2.800000             0.000000             0.088431
C            -3.500000            -1.212436             0.037024
C            -2.800000            -2.424871             0.080034
C            -1.400000            -2.424871             0.081067
H            -3.350000             0.952628             0.017855
C            -0.700000            -3.637307             0.069429
C             0.700000            -3.637307             0.066098
C             1.400000            -4.849742             0.099006
C             2.800000            -4.849742             0.038351
C             3.500000            -6.062178             0.073051
C             4.900000            -6.062178             0.007620
C             5.600000            -7.274613             0.007463
C             7.000000            -7.274613             0.053488
H             7.550000            -8.227241             0.038484
C            -4.900000            -1.212436             0.037523
C            -5.600000            -2.424871             0.097292
C            -4.900000            -3.637307             0.071307
C            -3.500000            -3.637307             0.034589
H            -5.450000            -0.259808             0.024376
H            -6.700000            -2.424871             0.075566
H            -5.450000            -4.589935             0.088488
C            -2.800000            -4.849742             0.034657
C            -1.400000            -4.849742             0.007341
H            -3.350000            -5.802370             0.055279
C            -0.700000            -6.062178             0.041669
C             0.700000            -6.062178             0.022447
H            -1.250000            -7.014806             0.047823
C             1.400000            -7.274613             0.049931
C             2.800000            -7.274613             0.060291
H             0.850000            -8.227241             0.028580
C             3.500000            -8.487049             0.053957
C             4.900000            -8.487049             0.051951
H             2.950000            -9.439677             0.047819
H             5.450000            -9.439677             0.058096
