64
isomero_15_8
C             0.700000             1.212436             0.004014
C            -0.700000             1.212436             0.073417
C            -1.400000             0.000000             0.081134
C            -0.700000            -1.212436             0.006478
C             0.700000            -1.212436             0.048661
C             1.400000            -0.000000             0.099356
H             1.250000             2.165064             0.038970
H            -1.250000             2.165064             0.070172
C             2.800000             0.000000             0.021478
C             1.400000            -2.424871             0.049945
B             2.800000            -2.424871             0.005563
N             3.500000            -1.212436             0.003549
H             3.350000             0.952628             0.048930
C             4.900000            -1.212436             0.029484
C             3.500000            -3.637307             0.006482
C             4.900000            -3.637307             0.070017
C             5.600000            -2.424871             0.031562
H             5.450000            -0.259808             0.078294
C             7.000000            -2.424871             0.018074
C             5.600000            -4.849742             0.002436
C             7.000000            -4.849742             0.077644
C             7.700000            -3.637307             0.041292
H             7.550000            -1.472243             0.048062
C             9.100000            -3.637307             0.024682
C             7.700000            -6.062178             0.037281
C             9.100000            -6.062178             0.084052
C             9.800000            -4.849742             0.088043
H             9.650000            -2.684679             0.024209
H             9.650000            -7.014806             0.069682
H            10.900000            -4.849742             0.026845
C            -2.800000             0.000000             0.044079
C            -3.500000            -1.212436             0.009625
C            -2.800000            -2.424871             0.029910
C            -1.400000            -2.424871             0.096403
H            -3.350000             0.952628             0.041669
C            -0.700000            -3.637307             0.092218
C             0.700000            -3.637307             0.062654
C             1.400000            -4.849742             0.070236
C             2.800000            -4.849742             0.055455
C             3.500000            -6.062178             0.038170
C             4.900000            -6.062178             0.045377
C             5.600000            -7.274613             0.090731
C             7.000000            -7.274613             0.067896
H             7.550000            -8.227241             0.011730
C            -4.900000            -1.212436             0.036993
C            -5.600000            -2.424871             0.084765
C            -4.900000            -3.637307             0.027482
C            -3.500000            -3.637307             0.043787
H            -5.450000            -0.259808             0.031803
H            -6.700000            -2.424871             0.012557
H            -5.450000            -4.589935             0.064001
C            -2.800000            -4.849742             0.069564
C            -1.400000            -4.849742             0.093008
H            -3.350000            -5.802370             0.077954
C            -0.700000            -6.062178             0.032006
C             0.700000            -6.062178             0.060680
H            -1.250000            -7.014806             0.014112
C             1.400000            -7.274613             0.000571
C             2.800000            -7.274613             0.042070
H             0.850000            -8.227241             0.089432
C             3.500000            -8.487049             0.015594
C             4.900000            -8.487049             0.031055
H             2.950000            -9.439677             0.096089
H             5.450000            -9.439677             0.096788
