64
isomero_14_22
C             0.700000             1.212436             0.020943
C            -0.700000             1.212436             0.062223
C            -1.400000             0.000000             0.059237
C            -0.700000            -1.212436             0.096655
C             0.700000            -1.212436             0.051484
C             1.400000            -0.000000             0.094111
H             1.250000             2.165064             0.023095
H            -1.250000             2.165064             0.055912
C             2.800000             0.000000             0.008400
C             1.400000            -2.424871             0.082451
C             2.800000            -2.424871             0.017544
C             3.500000            -1.212436             0.056353
H             3.350000             0.952628             0.081350
C             4.900000            -1.212436             0.094902
C             3.500000            -3.637307             0.064958
N             4.900000            -3.637307             0.019863
B             5.600000            -2.424871             0.008249
H             5.450000            -0.259808             0.036662
C             7.000000            -2.424871             0.098437
C             5.600000            -4.849742             0.028021
C             7.000000            -4.849742             0.022751
C             7.700000            -3.637307             0.013592
H             7.550000            -1.472243             0.090169
C             9.100000            -3.637307             0.043088
C             7.700000            -6.062178             0.056110
C             9.100000            -6.062178             0.001439
C             9.800000            -4.849742             0.047745
H             9.650000            -2.684679             0.083404
H             9.650000            -7.014806             0.005786
H            10.900000            -4.849742             0.032046
C            -2.800000             0.000000             0.038581
C            -3.500000            -1.212436             0.072678
C            -2.800000            -2.424871             0.096725
C            -1.400000            -2.424871             0.097024
H            -3.350000             0.952628             0.062650
C            -0.700000            -3.637307             0.085159
C             0.700000            -3.637307             0.028878
C             1.400000            -4.849742             0.037741
C             2.800000            -4.849742             0.023034
C             3.500000            -6.062178             0.098386
C             4.900000            -6.062178             0.000728
C             5.600000            -7.274613             0.069344
C             7.000000            -7.274613             0.037923
H             7.550000            -8.227241             0.071389
C            -4.900000            -1.212436             0.012770
C            -5.600000            -2.424871             0.007756
C            -4.900000            -3.637307             0.056822
C            -3.500000            -3.637307             0.089525
H            -5.450000            -0.259808             0.061095
H            -6.700000            -2.424871             0.080612
H            -5.450000            -4.589935             0.003401
C            -2.800000            -4.849742             0.061853
C            -1.400000            -4.849742             0.036138
H            -3.350000            -5.802370             0.014047
C            -0.700000            -6.062178             0.012838
C             0.700000            -6.062178             0.003601
H            -1.250000            -7.014806             0.040187
C             1.400000            -7.274613             0.097322
C             2.800000            -7.274613             0.089011
H             0.850000            -8.227241             0.059997
C             3.500000            -8.487049             0.039725
C             4.900000            -8.487049             0.001875
H             2.950000            -9.439677             0.077223
H             5.450000            -9.439677             0.069469
