64
isomero_10_17
C             0.700000             1.212436             0.082023
C            -0.700000             1.212436             0.036863
C            -1.400000             0.000000             0.080994
B            -0.700000            -1.212436             0.006068
C             0.700000            -1.212436             0.009075
C             1.400000            -0.000000             0.080559
H             1.250000             2.165064             0.054698
H            -1.250000             2.165064             0.089512
C             2.800000             0.000000             0.018686
C             1.400000            -2.424871             0.083246
C             2.800000            -2.424871             0.006264
C             3.500000            -1.212436             0.060003
H             3.350000             0.952628             0.006007
C             4.900000            -1.212436             0.023353
C             3.500000            -3.637307             0.021971
C             4.900000            -3.637307             0.025925
C             5.600000            -2.424871             0.059929
H             5.450000            -0.259808             0.069492
C             7.000000            -2.424871             0.092213
C             5.600000            -4.849742             0.065558
C             7.000000            -4.849742             0.063364
C             7.700000            -3.637307             0.040180
H             7.550000            -1.472243             0.035784
C             9.100000            -3.637307             0.045399
C             7.700000            -6.062178             0.083893
C             9.100000            -6.062178             0.039001
C             9.800000            -4.849742             0.088968
H             9.650000            -2.684679             0.081145
H             9.650000            -7.014806             0.082225
H            10.900000            -4.849742             0.086490
C            -2.800000             0.000000             0.033874
C            -3.500000            -1.212436             0.006326
C            -2.800000            -2.424871             0.026686
N            -1.400000            -2.424871             0.009257
H            -3.350000             0.952628             0.067131
C            -0.700000            -3.637307             0.094492
C             0.700000            -3.637307             0.065631
C             1.400000            -4.849742             0.041636
C             2.800000            -4.849742             0.024161
C             3.500000            -6.062178             0.035099
C             4.900000            -6.062178             0.069974
C             5.600000            -7.274613             0.048872
C             7.000000            -7.274613             0.082037
H             7.550000            -8.227241             0.032996
C            -4.900000            -1.212436             0.009407
C            -5.600000            -2.424871             0.083176
C            -4.900000            -3.637307             0.042668
C            -3.500000            -3.637307             0.025695
H            -5.450000            -0.259808             0.060589
H            -6.700000            -2.424871             0.057713
H            -5.450000            -4.589935             0.096145
C            -2.800000            -4.849742             0.006338
C            -1.400000            -4.849742             0.071943
H            -3.350000            -5.802370             0.090201
C            -0.700000            -6.062178             0.019518
C             0.700000            -6.062178             0.089767
H            -1.250000            -7.014806             0.082161
C             1.400000            -7.274613             0.066595
C             2.800000            -7.274613             0.065668
H             0.850000            -8.227241             0.053554
C             3.500000            -8.487049             0.014804
C             4.900000            -8.487049             0.061537
H             2.950000            -9.439677             0.037391
H             5.450000            -9.439677             0.043873
