64
isomero_10_9
C             0.700000             1.212436             0.043876
C            -0.700000             1.212436             0.089230
C            -1.400000             0.000000             0.093029
B            -0.700000            -1.212436             0.060236
N             0.700000            -1.212436             0.072898
C             1.400000            -0.000000             0.089436
H             1.250000             2.165064             0.036184
H            -1.250000             2.165064             0.020369
C             2.800000             0.000000             0.053028
C             1.400000            -2.424871             0.092720
C             2.800000            -2.424871             0.020995
C             3.500000            -1.212436             0.098202
H             3.350000             0.952628             0.041636
C             4.900000            -1.212436             0.026866
C             3.500000            -3.637307             0.073074
C             4.900000            -3.637307             0.053411
C             5.600000            -2.424871             0.037511
H             5.450000            -0.259808             0.038241
C             7.000000            -2.424871             0.021716
C             5.600000            -4.849742             0.084515
C             7.000000            -4.849742             0.007174
C             7.700000            -3.637307             0.036252
H             7.550000            -1.472243             0.010959
C             9.100000            -3.637307             0.091358
C             7.700000            -6.062178             0.004051
C             9.100000            -6.062178             0.022793
C             9.800000            -4.849742             0.035124
H             9.650000            -2.684679             0.089098
H             9.650000            -7.014806             0.048396
H            10.900000            -4.849742             0.020941
C            -2.800000             0.000000             0.031815
C            -3.500000            -1.212436             0.089929
C            -2.800000            -2.424871             0.000699
C            -1.400000            -2.424871             0.017389
H            -3.350000             0.952628             0.076774
C            -0.700000            -3.637307             0.017557
C             0.700000            -3.637307             0.050734
C             1.400000            -4.849742             0.029380
C             2.800000            -4.849742             0.087325
C             3.500000            -6.062178             0.082348
C             4.900000            -6.062178             0.099882
C             5.600000            -7.274613             0.037454
C             7.000000            -7.274613             0.050809
H             7.550000            -8.227241             0.074850
C            -4.900000            -1.212436             0.039992
C            -5.600000            -2.424871             0.093166
C            -4.900000            -3.637307             0.042769
C            -3.500000            -3.637307             0.004222
H            -5.450000            -0.259808             0.015755
H            -6.700000            -2.424871             0.036135
H            -5.450000            -4.589935             0.005885
C            -2.800000            -4.849742             0.084336
C            -1.400000            -4.849742             0.088998
H            -3.350000            -5.802370             0.005889
C            -0.700000            -6.062178             0.020249
C             0.700000            -6.062178             0.008737
H            -1.250000            -7.014806             0.057307
C             1.400000            -7.274613             0.043699
C             2.800000            -7.274613             0.008881
H             0.850000            -8.227241             0.077572
C             3.500000            -8.487049             0.073393
C             4.900000            -8.487049             0.014523
H             2.950000            -9.439677             0.061583
H             5.450000            -9.439677             0.079821
