64
isomero_5_6
C             0.700000             1.212436             0.035110
C            -0.700000             1.212436             0.052277
B            -1.400000             0.000000             0.033517
C            -0.700000            -1.212436             0.002354
C             0.700000            -1.212436             0.040168
C             1.400000            -0.000000             0.050468
H             1.250000             2.165064             0.012959
H            -1.250000             2.165064             0.061297
C             2.800000             0.000000             0.096346
C             1.400000            -2.424871             0.008966
C             2.800000            -2.424871             0.030866
C             3.500000            -1.212436             0.052921
H             3.350000             0.952628             0.044742
C             4.900000            -1.212436             0.093996
C             3.500000            -3.637307             0.072110
C             4.900000            -3.637307             0.073788
C             5.600000            -2.424871             0.063913
H             5.450000            -0.259808             0.003531
C             7.000000            -2.424871             0.064162
C             5.600000            -4.849742             0.031859
C             7.000000            -4.849742             0.010110
C             7.700000            -3.637307             0.008098
H             7.550000            -1.472243             0.090215
C             9.100000            -3.637307             0.025274
C             7.700000            -6.062178             0.049491
C             9.100000            -6.062178             0.038811
C             9.800000            -4.849742             0.026363
H             9.650000            -2.684679             0.026312
H             9.650000            -7.014806             0.069953
H            10.900000            -4.849742             0.005673
N            -2.800000             0.000000             0.078872
C            -3.500000            -1.212436             0.029230
C            -2.800000            -2.424871             0.083944
C            -1.400000            -2.424871             0.048463
H            -3.350000             0.952628             0.023348
C            -0.700000            -3.637307             0.022054
C             0.700000            -3.637307             0.031429
C             1.400000            -4.849742             0.099543
C             2.800000            -4.849742             0.018913
C             3.500000            -6.062178             0.085049
C             4.900000            -6.062178             0.084390
C             5.600000            -7.274613             0.052832
C             7.000000            -7.274613             0.066487
H             7.550000            -8.227241             0.036962
C            -4.900000            -1.212436             0.031744
C            -5.600000            -2.424871             0.081032
C            -4.900000            -3.637307             0.010262
C            -3.500000            -3.637307             0.021276
H            -5.450000            -0.259808             0.044642
H            -6.700000            -2.424871             0.038655
H            -5.450000            -4.589935             0.077465
C            -2.800000            -4.849742             0.047423
C            -1.400000            -4.849742             0.079679
H            -3.350000            -5.802370             0.002486
C            -0.700000            -6.062178             0.099914
C             0.700000            -6.062178             0.028305
H            -1.250000            -7.014806             0.076782
C             1.400000            -7.274613             0.003506
C             2.800000            -7.274613             0.087036
H             0.850000            -8.227241             0.074294
C             3.500000            -8.487049             0.010929
C             4.900000            -8.487049             0.086662
H             2.950000            -9.439677             0.082153
H             5.450000            -9.439677             0.000379
