64
isomero_20_21
C             0.700000             1.212436             0.075872
C            -0.700000             1.212436             0.095668
C            -1.400000             0.000000             0.094233
C            -0.700000            -1.212436             0.032204
C             0.700000            -1.212436             0.092401
C             1.400000            -0.000000             0.062677
H             1.250000             2.165064             0.064467
H            -1.250000             2.165064             0.061126
C             2.800000             0.000000             0.004789
C             1.400000            -2.424871             0.067679
C             2.800000            -2.424871             0.096595
C             3.500000            -1.212436             0.092411
H             3.350000             0.952628             0.041625
C             4.900000            -1.212436             0.032197
C             3.500000            -3.637307             0.012412
C             4.900000            -3.637307             0.074836
C             5.600000            -2.424871             0.031766
H             5.450000            -0.259808             0.002953
C             7.000000            -2.424871             0.072971
C             5.600000            -4.849742             0.068276
C             7.000000            -4.849742             0.051448
N             7.700000            -3.637307             0.080797
H             7.550000            -1.472243             0.089535
B             9.100000            -3.637307             0.099243
C             7.700000            -6.062178             0.040453
C             9.100000            -6.062178             0.023812
C             9.800000            -4.849742             0.013699
H             9.650000            -2.684679             0.043300
H             9.650000            -7.014806             0.084023
H            10.900000            -4.849742             0.068360
C            -2.800000             0.000000             0.030373
C            -3.500000            -1.212436             0.037216
C            -2.800000            -2.424871             0.017806
C            -1.400000            -2.424871             0.035876
H            -3.350000             0.952628             0.025576
C            -0.700000            -3.637307             0.038412
C             0.700000            -3.637307             0.019621
C             1.400000            -4.849742             0.044762
C             2.800000            -4.849742             0.008259
C             3.500000            -6.062178             0.026132
C             4.900000            -6.062178             0.047260
C             5.600000            -7.274613             0.043276
C             7.000000            -7.274613             0.002045
H             7.550000            -8.227241             0.015848
C            -4.900000            -1.212436             0.066162
C            -5.600000            -2.424871             0.058498
C            -4.900000            -3.637307             0.018120
C            -3.500000            -3.637307             0.034928
H            -5.450000            -0.259808             0.062716
H            -6.700000            -2.424871             0.051194
H            -5.450000            -4.589935             0.084168
C            -2.800000            -4.849742             0.010228
C            -1.400000            -4.849742             0.096138
H            -3.350000            -5.802370             0.015400
C            -0.700000            -6.062178             0.073496
C             0.700000            -6.062178             0.099242
H            -1.250000            -7.014806             0.046976
C             1.400000            -7.274613             0.046414
C             2.800000            -7.274613             0.061040
H             0.850000            -8.227241             0.095968
C             3.500000            -8.487049             0.028196
C             4.900000            -8.487049             0.093318
H             2.950000            -9.439677             0.025515
H             5.450000            -9.439677             0.078218
