64
isomero_3_4
C             0.700000             1.212436             0.068169
C            -0.700000             1.212436             0.052943
C            -1.400000             0.000000             0.083745
C            -0.700000            -1.212436             0.046630
C             0.700000            -1.212436             0.032237
N             1.400000            -0.000000             0.058726
H             1.250000             2.165064             0.063954
H            -1.250000             2.165064             0.001749
B             2.800000             0.000000             0.003674
C             1.400000            -2.424871             0.005514
C             2.800000            -2.424871             0.006398
C             3.500000            -1.212436             0.007137
H             3.350000             0.952628             0.096478
C             4.900000            -1.212436             0.008316
C             3.500000            -3.637307             0.045526
C             4.900000            -3.637307             0.095620
C             5.600000            -2.424871             0.050864
H             5.450000            -0.259808             0.021031
C             7.000000            -2.424871             0.099845
C             5.600000            -4.849742             0.096991
C             7.000000            -4.849742             0.067315
C             7.700000            -3.637307             0.007651
H             7.550000            -1.472243             0.021169
C             9.100000            -3.637307             0.004576
C             7.700000            -6.062178             0.050571
C             9.100000            -6.062178             0.095016
C             9.800000            -4.849742             0.057756
H             9.650000            -2.684679             0.043945
H             9.650000            -7.014806             0.060200
H            10.900000            -4.849742             0.021455
C            -2.800000             0.000000             0.067257
C            -3.500000            -1.212436             0.032386
C            -2.800000            -2.424871             0.063414
C            -1.400000            -2.424871             0.035558
H            -3.350000             0.952628             0.015258
C            -0.700000            -3.637307             0.008449
C             0.700000            -3.637307             0.073880
C             1.400000            -4.849742             0.083741
C             2.800000            -4.849742             0.036747
C             3.500000            -6.062178             0.012705
C             4.900000            -6.062178             0.007333
C             5.600000            -7.274613             0.089222
C             7.000000            -7.274613             0.023481
H             7.550000            -8.227241             0.076720
C            -4.900000            -1.212436             0.048706
C            -5.600000            -2.424871             0.079643
C            -4.900000            -3.637307             0.030860
C            -3.500000            -3.637307             0.050859
H            -5.450000            -0.259808             0.080712
H            -6.700000            -2.424871             0.075031
H            -5.450000            -4.589935             0.086175
C            -2.800000            -4.849742             0.055330
C            -1.400000            -4.849742             0.079564
H            -3.350000            -5.802370             0.094986
C            -0.700000            -6.062178             0.074584
C             0.700000            -6.062178             0.006198
H            -1.250000            -7.014806             0.019035
C             1.400000            -7.274613             0.074645
C             2.800000            -7.274613             0.010922
H             0.850000            -8.227241             0.097674
C             3.500000            -8.487049             0.077333
C             4.900000            -8.487049             0.099430
H             2.950000            -9.439677             0.031727
H             5.450000            -9.439677             0.073397
