64
isomero_9_4
C             0.700000             1.212436             0.039084
C            -0.700000             1.212436             0.092056
C            -1.400000             0.000000             0.067639
C            -0.700000            -1.212436             0.029147
B             0.700000            -1.212436             0.096363
N             1.400000            -0.000000             0.001639
H             1.250000             2.165064             0.022207
H            -1.250000             2.165064             0.082873
C             2.800000             0.000000             0.077884
C             1.400000            -2.424871             0.030272
C             2.800000            -2.424871             0.086486
C             3.500000            -1.212436             0.092732
H             3.350000             0.952628             0.075146
C             4.900000            -1.212436             0.044229
C             3.500000            -3.637307             0.054261
C             4.900000            -3.637307             0.087511
C             5.600000            -2.424871             0.097747
H             5.450000            -0.259808             0.059555
C             7.000000            -2.424871             0.058649
C             5.600000            -4.849742             0.088300
C             7.000000            -4.849742             0.079118
C             7.700000            -3.637307             0.051231
H             7.550000            -1.472243             0.054991
C             9.100000            -3.637307             0.063952
C             7.700000            -6.062178             0.033115
C             9.100000            -6.062178             0.032881
C             9.800000            -4.849742             0.014841
H             9.650000            -2.684679             0.072715
H             9.650000            -7.014806             0.036914
H            10.900000            -4.849742             0.060642
C            -2.800000             0.000000             0.000684
C            -3.500000            -1.212436             0.013892
C            -2.800000            -2.424871             0.096433
C            -1.400000            -2.424871             0.072047
H            -3.350000             0.952628             0.091535
C            -0.700000            -3.637307             0.072790
C             0.700000            -3.637307             0.049769
C             1.400000            -4.849742             0.063732
C             2.800000            -4.849742             0.048472
C             3.500000            -6.062178             0.041164
C             4.900000            -6.062178             0.027382
C             5.600000            -7.274613             0.088474
C             7.000000            -7.274613             0.090524
H             7.550000            -8.227241             0.045772
C            -4.900000            -1.212436             0.041948
C            -5.600000            -2.424871             0.055157
C            -4.900000            -3.637307             0.079040
C            -3.500000            -3.637307             0.005873
H            -5.450000            -0.259808             0.046578
H            -6.700000            -2.424871             0.077454
H            -5.450000            -4.589935             0.070423
C            -2.800000            -4.849742             0.067635
C            -1.400000            -4.849742             0.077562
H            -3.350000            -5.802370             0.045474
C            -0.700000            -6.062178             0.022575
C             0.700000            -6.062178             0.093634
H            -1.250000            -7.014806             0.062282
C             1.400000            -7.274613             0.073332
C             2.800000            -7.274613             0.083639
H             0.850000            -8.227241             0.059453
C             3.500000            -8.487049             0.039479
C             4.900000            -8.487049             0.061823
H             2.950000            -9.439677             0.067717
H             5.450000            -9.439677             0.001732
