64
isomero_17_10
C             0.700000             1.212436             0.015186
C            -0.700000             1.212436             0.091955
C            -1.400000             0.000000             0.072697
N            -0.700000            -1.212436             0.014577
C             0.700000            -1.212436             0.020777
C             1.400000            -0.000000             0.049207
H             1.250000             2.165064             0.029195
H            -1.250000             2.165064             0.066261
C             2.800000             0.000000             0.010178
C             1.400000            -2.424871             0.076989
C             2.800000            -2.424871             0.029459
C             3.500000            -1.212436             0.016130
H             3.350000             0.952628             0.025643
C             4.900000            -1.212436             0.097061
C             3.500000            -3.637307             0.020411
C             4.900000            -3.637307             0.090528
C             5.600000            -2.424871             0.016133
H             5.450000            -0.259808             0.047130
C             7.000000            -2.424871             0.093733
C             5.600000            -4.849742             0.013575
C             7.000000            -4.849742             0.078524
C             7.700000            -3.637307             0.066418
H             7.550000            -1.472243             0.073117
C             9.100000            -3.637307             0.017577
C             7.700000            -6.062178             0.036848
C             9.100000            -6.062178             0.070822
C             9.800000            -4.849742             0.041320
H             9.650000            -2.684679             0.024566
H             9.650000            -7.014806             0.088223
H            10.900000            -4.849742             0.069477
C            -2.800000             0.000000             0.068007
C            -3.500000            -1.212436             0.003098
C            -2.800000            -2.424871             0.064671
B            -1.400000            -2.424871             0.005627
H            -3.350000             0.952628             0.073791
C            -0.700000            -3.637307             0.098451
C             0.700000            -3.637307             0.070263
C             1.400000            -4.849742             0.074494
C             2.800000            -4.849742             0.057943
C             3.500000            -6.062178             0.094893
C             4.900000            -6.062178             0.009490
C             5.600000            -7.274613             0.091508
C             7.000000            -7.274613             0.048994
H             7.550000            -8.227241             0.033315
C            -4.900000            -1.212436             0.085834
C            -5.600000            -2.424871             0.002627
C            -4.900000            -3.637307             0.021478
C            -3.500000            -3.637307             0.048471
H            -5.450000            -0.259808             0.089876
H            -6.700000            -2.424871             0.072329
H            -5.450000            -4.589935             0.086962
C            -2.800000            -4.849742             0.040697
C            -1.400000            -4.849742             0.009483
H            -3.350000            -5.802370             0.002944
C            -0.700000            -6.062178             0.051407
C             0.700000            -6.062178             0.050067
H            -1.250000            -7.014806             0.078740
C             1.400000            -7.274613             0.081639
C             2.800000            -7.274613             0.073027
H             0.850000            -8.227241             0.077101
C             3.500000            -8.487049             0.033259
C             4.900000            -8.487049             0.058774
H             2.950000            -9.439677             0.080557
H             5.450000            -9.439677             0.016232
