64
isomero_3_8
C             0.700000             1.212436             0.081552
C            -0.700000             1.212436             0.041541
C            -1.400000             0.000000             0.044665
C            -0.700000            -1.212436             0.057618
C             0.700000            -1.212436             0.076268
C             1.400000            -0.000000             0.061894
H             1.250000             2.165064             0.031478
H            -1.250000             2.165064             0.080159
B             2.800000             0.000000             0.076323
C             1.400000            -2.424871             0.024573
C             2.800000            -2.424871             0.050747
N             3.500000            -1.212436             0.014702
H             3.350000             0.952628             0.012970
C             4.900000            -1.212436             0.066065
C             3.500000            -3.637307             0.007323
C             4.900000            -3.637307             0.020156
C             5.600000            -2.424871             0.085075
H             5.450000            -0.259808             0.059580
C             7.000000            -2.424871             0.067731
C             5.600000            -4.849742             0.096495
C             7.000000            -4.849742             0.080544
C             7.700000            -3.637307             0.075106
H             7.550000            -1.472243             0.079844
C             9.100000            -3.637307             0.027387
C             7.700000            -6.062178             0.041287
C             9.100000            -6.062178             0.027342
C             9.800000            -4.849742             0.021485
H             9.650000            -2.684679             0.028461
H             9.650000            -7.014806             0.068454
H            10.900000            -4.849742             0.043476
C            -2.800000             0.000000             0.055976
C            -3.500000            -1.212436             0.020073
C            -2.800000            -2.424871             0.060991
C            -1.400000            -2.424871             0.078870
H            -3.350000             0.952628             0.006143
C            -0.700000            -3.637307             0.098898
C             0.700000            -3.637307             0.062153
C             1.400000            -4.849742             0.097438
C             2.800000            -4.849742             0.085468
C             3.500000            -6.062178             0.003935
C             4.900000            -6.062178             0.044548
C             5.600000            -7.274613             0.032322
C             7.000000            -7.274613             0.015496
H             7.550000            -8.227241             0.087399
C            -4.900000            -1.212436             0.035214
C            -5.600000            -2.424871             0.039980
C            -4.900000            -3.637307             0.091113
C            -3.500000            -3.637307             0.039818
H            -5.450000            -0.259808             0.047493
H            -6.700000            -2.424871             0.089412
H            -5.450000            -4.589935             0.068751
C            -2.800000            -4.849742             0.065999
C            -1.400000            -4.849742             0.077474
H            -3.350000            -5.802370             0.080855
C            -0.700000            -6.062178             0.031797
C             0.700000            -6.062178             0.000955
H            -1.250000            -7.014806             0.091424
C             1.400000            -7.274613             0.009753
C             2.800000            -7.274613             0.086432
H             0.850000            -8.227241             0.095780
C             3.500000            -8.487049             0.086501
C             4.900000            -8.487049             0.067390
H             2.950000            -9.439677             0.055616
H             5.450000            -9.439677             0.045135
