64
isomero_14_7
C             0.700000             1.212436             0.097201
C            -0.700000             1.212436             0.085616
C            -1.400000             0.000000             0.038489
C            -0.700000            -1.212436             0.027313
C             0.700000            -1.212436             0.083446
C             1.400000            -0.000000             0.049225
H             1.250000             2.165064             0.047074
H            -1.250000             2.165064             0.014524
C             2.800000             0.000000             0.010029
C             1.400000            -2.424871             0.030296
C             2.800000            -2.424871             0.098345
C             3.500000            -1.212436             0.007769
H             3.350000             0.952628             0.026252
N             4.900000            -1.212436             0.036284
C             3.500000            -3.637307             0.064334
C             4.900000            -3.637307             0.009635
B             5.600000            -2.424871             0.002468
H             5.450000            -0.259808             0.031168
C             7.000000            -2.424871             0.095421
C             5.600000            -4.849742             0.090530
C             7.000000            -4.849742             0.072840
C             7.700000            -3.637307             0.065572
H             7.550000            -1.472243             0.061622
C             9.100000            -3.637307             0.021361
C             7.700000            -6.062178             0.070774
C             9.100000            -6.062178             0.018749
C             9.800000            -4.849742             0.089380
H             9.650000            -2.684679             0.005811
H             9.650000            -7.014806             0.032303
H            10.900000            -4.849742             0.085350
C            -2.800000             0.000000             0.012157
C            -3.500000            -1.212436             0.075005
C            -2.800000            -2.424871             0.047267
C            -1.400000            -2.424871             0.030254
H            -3.350000             0.952628             0.060232
C            -0.700000            -3.637307             0.021239
C             0.700000            -3.637307             0.069580
C             1.400000            -4.849742             0.029602
C             2.800000            -4.849742             0.019179
C             3.500000            -6.062178             0.032316
C             4.900000            -6.062178             0.093336
C             5.600000            -7.274613             0.066762
C             7.000000            -7.274613             0.075140
H             7.550000            -8.227241             0.097280
C            -4.900000            -1.212436             0.042791
C            -5.600000            -2.424871             0.030263
C            -4.900000            -3.637307             0.085462
C            -3.500000            -3.637307             0.039706
H            -5.450000            -0.259808             0.073437
H            -6.700000            -2.424871             0.064109
H            -5.450000            -4.589935             0.086524
C            -2.800000            -4.849742             0.039070
C            -1.400000            -4.849742             0.099367
H            -3.350000            -5.802370             0.031481
C            -0.700000            -6.062178             0.004037
C             0.700000            -6.062178             0.034583
H            -1.250000            -7.014806             0.083013
C             1.400000            -7.274613             0.082191
C             2.800000            -7.274613             0.032770
H             0.850000            -8.227241             0.091666
C             3.500000            -8.487049             0.062925
C             4.900000            -8.487049             0.007183
H             2.950000            -9.439677             0.067871
H             5.450000            -9.439677             0.035939
