64
isomero_1_2
C             0.700000             1.212436             0.020464
C            -0.700000             1.212436             0.009015
C            -1.400000             0.000000             0.000452
C            -0.700000            -1.212436             0.018713
C             0.700000            -1.212436             0.065135
C             1.400000            -0.000000             0.059572
H             1.250000             2.165064             0.094229
H            -1.250000             2.165064             0.064020
C             2.800000             0.000000             0.044918
C             1.400000            -2.424871             0.037682
C             2.800000            -2.424871             0.000879
C             3.500000            -1.212436             0.021669
H             3.350000             0.952628             0.044319
C             4.900000            -1.212436             0.033937
C             3.500000            -3.637307             0.014014
C             4.900000            -3.637307             0.008841
C             5.600000            -2.424871             0.000373
H             5.450000            -0.259808             0.079767
C             7.000000            -2.424871             0.029366
C             5.600000            -4.849742             0.071135
C             7.000000            -4.849742             0.044350
C             7.700000            -3.637307             0.029609
H             7.550000            -1.472243             0.026206
C             9.100000            -3.637307             0.027524
C             7.700000            -6.062178             0.007370
C             9.100000            -6.062178             0.079219
C             9.800000            -4.849742             0.030042
H             9.650000            -2.684679             0.005034
H             9.650000            -7.014806             0.033609
H            10.900000            -4.849742             0.086236
C            -2.800000             0.000000             0.015186
C            -3.500000            -1.212436             0.030955
C            -2.800000            -2.424871             0.053087
C            -1.400000            -2.424871             0.053932
H            -3.350000             0.952628             0.079450
C            -0.700000            -3.637307             0.006077
C             0.700000            -3.637307             0.084268
C             1.400000            -4.849742             0.093104
C             2.800000            -4.849742             0.075926
C             3.500000            -6.062178             0.011836
C             4.900000            -6.062178             0.012596
C             5.600000            -7.274613             0.030000
C             7.000000            -7.274613             0.037669
H             7.550000            -8.227241             0.065622
C            -4.900000            -1.212436             0.084668
C            -5.600000            -2.424871             0.077851
C            -4.900000            -3.637307             0.069883
C            -3.500000            -3.637307             0.047873
H            -5.450000            -0.259808             0.039218
H            -6.700000            -2.424871             0.054919
H            -5.450000            -4.589935             0.059503
C            -2.800000            -4.849742             0.005962
C            -1.400000            -4.849742             0.091921
H            -3.350000            -5.802370             0.048258
C            -0.700000            -6.062178             0.007358
C             0.700000            -6.062178             0.034281
H            -1.250000            -7.014806             0.054072
C             1.400000            -7.274613             0.060509
C             2.800000            -7.274613             0.077678
H             0.850000            -8.227241             0.066148
C             3.500000            -8.487049             0.065571
C             4.900000            -8.487049             0.057782
H             2.950000            -9.439677             0.028745
H             5.450000            -9.439677             0.077732
