44
isomero_16_17
C             0.700000             1.212436             0.072922
C            -0.700000             1.212436             0.068385
C            -1.400000             0.000000             0.064141
C            -0.700000            -1.212436             0.031588
C             0.700000            -1.212436             0.073215
C             1.400000            -0.000000             0.015765
H             1.250000             2.165064             0.076007
H            -1.250000             2.165064             0.009191
C             2.800000             0.000000             0.096765
C             1.400000            -2.424871             0.060897
C             2.800000            -2.424871             0.089495
C             3.500000            -1.212436             0.019415
H             3.350000             0.952628             0.098806
C             4.900000            -1.212436             0.024131
C             3.500000            -3.637307             0.022342
C             4.900000            -3.637307             0.040200
C             5.600000            -2.424871             0.078091
H             5.450000            -0.259808             0.083921
H             5.450000            -4.589935             0.040950
H             6.700000            -2.424871             0.040240
C            -2.800000             0.000000             0.077175
C            -3.500000            -1.212436             0.024912
N            -2.800000            -2.424871             0.086574
B            -1.400000            -2.424871             0.068219
H            -3.350000             0.952628             0.097739
C            -0.700000            -3.637307             0.018552
C             0.700000            -3.637307             0.021618
C             1.400000            -4.849742             0.031292
C             2.800000            -4.849742             0.075201
H             3.350000            -5.802370             0.036774
C            -4.900000            -1.212436             0.060446
C            -5.600000            -2.424871             0.038343
C            -4.900000            -3.637307             0.055049
C            -3.500000            -3.637307             0.038544
H            -5.450000            -0.259808             0.066544
H            -6.700000            -2.424871             0.001471
H            -5.450000            -4.589935             0.081312
C            -2.800000            -4.849742             0.034986
C            -1.400000            -4.849742             0.071552
H            -3.350000            -5.802370             0.095889
C            -0.700000            -6.062178             0.050742
C             0.700000            -6.062178             0.066617
H            -1.250000            -7.014806             0.042947
H             1.250000            -7.014806             0.084950
