44
isomero_16_10
C             0.700000             1.212436             0.061361
C            -0.700000             1.212436             0.027143
C            -1.400000             0.000000             0.085454
N            -0.700000            -1.212436             0.015746
C             0.700000            -1.212436             0.025942
C             1.400000            -0.000000             0.067058
H             1.250000             2.165064             0.022596
H            -1.250000             2.165064             0.082597
C             2.800000             0.000000             0.032410
C             1.400000            -2.424871             0.048839
C             2.800000            -2.424871             0.076372
C             3.500000            -1.212436             0.073768
H             3.350000             0.952628             0.063603
C             4.900000            -1.212436             0.024914
C             3.500000            -3.637307             0.073432
C             4.900000            -3.637307             0.033951
C             5.600000            -2.424871             0.030277
H             5.450000            -0.259808             0.012714
H             5.450000            -4.589935             0.001014
H             6.700000            -2.424871             0.092493
C            -2.800000             0.000000             0.091001
C            -3.500000            -1.212436             0.038215
C            -2.800000            -2.424871             0.070139
B            -1.400000            -2.424871             0.067234
H            -3.350000             0.952628             0.012767
C            -0.700000            -3.637307             0.020097
C             0.700000            -3.637307             0.090283
C             1.400000            -4.849742             0.089184
C             2.800000            -4.849742             0.037768
H             3.350000            -5.802370             0.025019
C            -4.900000            -1.212436             0.060270
C            -5.600000            -2.424871             0.062545
C            -4.900000            -3.637307             0.001968
C            -3.500000            -3.637307             0.081973
H            -5.450000            -0.259808             0.051794
H            -6.700000            -2.424871             0.090943
H            -5.450000            -4.589935             0.011862
C            -2.800000            -4.849742             0.094615
C            -1.400000            -4.849742             0.092704
H            -3.350000            -5.802370             0.009481
C            -0.700000            -6.062178             0.041526
C             0.700000            -6.062178             0.032286
H            -1.250000            -7.014806             0.084625
H             1.250000            -7.014806             0.094795
