44
isomero_2_5
C             0.700000             1.212436             0.021737
B            -0.700000             1.212436             0.011536
N            -1.400000             0.000000             0.008587
C            -0.700000            -1.212436             0.015463
C             0.700000            -1.212436             0.080218
C             1.400000            -0.000000             0.096447
H             1.250000             2.165064             0.019679
H            -1.250000             2.165064             0.077805
C             2.800000             0.000000             0.002648
C             1.400000            -2.424871             0.011388
C             2.800000            -2.424871             0.018662
C             3.500000            -1.212436             0.092541
H             3.350000             0.952628             0.054971
C             4.900000            -1.212436             0.003117
C             3.500000            -3.637307             0.087656
C             4.900000            -3.637307             0.095021
C             5.600000            -2.424871             0.048280
H             5.450000            -0.259808             0.043290
H             5.450000            -4.589935             0.061981
H             6.700000            -2.424871             0.023026
C            -2.800000             0.000000             0.070055
C            -3.500000            -1.212436             0.098099
C            -2.800000            -2.424871             0.016352
C            -1.400000            -2.424871             0.063078
H            -3.350000             0.952628             0.064179
C            -0.700000            -3.637307             0.063653
C             0.700000            -3.637307             0.098721
C             1.400000            -4.849742             0.038691
C             2.800000            -4.849742             0.026172
H             3.350000            -5.802370             0.045781
C            -4.900000            -1.212436             0.011437
C            -5.600000            -2.424871             0.035810
C            -4.900000            -3.637307             0.078535
C            -3.500000            -3.637307             0.030512
H            -5.450000            -0.259808             0.073067
H            -6.700000            -2.424871             0.064508
H            -5.450000            -4.589935             0.083937
C            -2.800000            -4.849742             0.052061
C            -1.400000            -4.849742             0.038141
H            -3.350000            -5.802370             0.061925
C            -0.700000            -6.062178             0.060476
C             0.700000            -6.062178             0.053555
H            -1.250000            -7.014806             0.073011
H             1.250000            -7.014806             0.037631
