44
isomero_6_5
C             0.700000             1.212436             0.036757
C            -0.700000             1.212436             0.042202
N            -1.400000             0.000000             0.057571
C            -0.700000            -1.212436             0.018602
C             0.700000            -1.212436             0.002223
C             1.400000            -0.000000             0.065800
H             1.250000             2.165064             0.045865
H            -1.250000             2.165064             0.019999
C             2.800000             0.000000             0.019652
C             1.400000            -2.424871             0.069357
C             2.800000            -2.424871             0.074742
C             3.500000            -1.212436             0.054333
H             3.350000             0.952628             0.052586
C             4.900000            -1.212436             0.040671
C             3.500000            -3.637307             0.055697
C             4.900000            -3.637307             0.073063
C             5.600000            -2.424871             0.029351
H             5.450000            -0.259808             0.078456
H             5.450000            -4.589935             0.007582
H             6.700000            -2.424871             0.047168
B            -2.800000             0.000000             0.039916
C            -3.500000            -1.212436             0.091111
C            -2.800000            -2.424871             0.042802
C            -1.400000            -2.424871             0.094508
H            -3.350000             0.952628             0.040453
C            -0.700000            -3.637307             0.024250
C             0.700000            -3.637307             0.087262
C             1.400000            -4.849742             0.049399
C             2.800000            -4.849742             0.042357
H             3.350000            -5.802370             0.055237
C            -4.900000            -1.212436             0.024857
C            -5.600000            -2.424871             0.025716
C            -4.900000            -3.637307             0.020974
C            -3.500000            -3.637307             0.058062
H            -5.450000            -0.259808             0.083515
H            -6.700000            -2.424871             0.085266
H            -5.450000            -4.589935             0.064390
C            -2.800000            -4.849742             0.098501
C            -1.400000            -4.849742             0.097898
H            -3.350000            -5.802370             0.068263
C            -0.700000            -6.062178             0.078548
C             0.700000            -6.062178             0.034880
H            -1.250000            -7.014806             0.078051
H             1.250000            -7.014806             0.004640
