44
isomero_5_10
C             0.700000             1.212436             0.075479
C            -0.700000             1.212436             0.039257
B            -1.400000             0.000000             0.026542
N            -0.700000            -1.212436             0.034689
C             0.700000            -1.212436             0.093426
C             1.400000            -0.000000             0.037385
H             1.250000             2.165064             0.048253
H            -1.250000             2.165064             0.023821
C             2.800000             0.000000             0.053125
C             1.400000            -2.424871             0.021012
C             2.800000            -2.424871             0.029521
C             3.500000            -1.212436             0.053199
H             3.350000             0.952628             0.050758
C             4.900000            -1.212436             0.049912
C             3.500000            -3.637307             0.091150
C             4.900000            -3.637307             0.073034
C             5.600000            -2.424871             0.089971
H             5.450000            -0.259808             0.080492
H             5.450000            -4.589935             0.044793
H             6.700000            -2.424871             0.023501
C            -2.800000             0.000000             0.006712
C            -3.500000            -1.212436             0.028420
C            -2.800000            -2.424871             0.043174
C            -1.400000            -2.424871             0.045512
H            -3.350000             0.952628             0.097935
C            -0.700000            -3.637307             0.092691
C             0.700000            -3.637307             0.059757
C             1.400000            -4.849742             0.058368
C             2.800000            -4.849742             0.011307
H             3.350000            -5.802370             0.039920
C            -4.900000            -1.212436             0.094288
C            -5.600000            -2.424871             0.021432
C            -4.900000            -3.637307             0.017045
C            -3.500000            -3.637307             0.034688
H            -5.450000            -0.259808             0.062019
H            -6.700000            -2.424871             0.043574
H            -5.450000            -4.589935             0.041583
C            -2.800000            -4.849742             0.028520
C            -1.400000            -4.849742             0.090509
H            -3.350000            -5.802370             0.068278
C            -0.700000            -6.062178             0.010426
C             0.700000            -6.062178             0.008348
H            -1.250000            -7.014806             0.001339
H             1.250000            -7.014806             0.091876
