44
isomero_5_2
C             0.700000             1.212436             0.012174
N            -0.700000             1.212436             0.036692
B            -1.400000             0.000000             0.081078
C            -0.700000            -1.212436             0.089770
C             0.700000            -1.212436             0.034671
C             1.400000            -0.000000             0.001590
H             1.250000             2.165064             0.002878
H            -1.250000             2.165064             0.084964
C             2.800000             0.000000             0.093956
C             1.400000            -2.424871             0.076271
C             2.800000            -2.424871             0.096580
C             3.500000            -1.212436             0.049272
H             3.350000             0.952628             0.055494
C             4.900000            -1.212436             0.065224
C             3.500000            -3.637307             0.097313
C             4.900000            -3.637307             0.090373
C             5.600000            -2.424871             0.002504
H             5.450000            -0.259808             0.057432
H             5.450000            -4.589935             0.072938
H             6.700000            -2.424871             0.015167
C            -2.800000             0.000000             0.004948
C            -3.500000            -1.212436             0.053494
C            -2.800000            -2.424871             0.003987
C            -1.400000            -2.424871             0.049998
H            -3.350000             0.952628             0.021033
C            -0.700000            -3.637307             0.047599
C             0.700000            -3.637307             0.065405
C             1.400000            -4.849742             0.004897
C             2.800000            -4.849742             0.085831
H             3.350000            -5.802370             0.003951
C            -4.900000            -1.212436             0.064055
C            -5.600000            -2.424871             0.050643
C            -4.900000            -3.637307             0.057712
C            -3.500000            -3.637307             0.087905
H            -5.450000            -0.259808             0.018435
H            -6.700000            -2.424871             0.020146
H            -5.450000            -4.589935             0.013196
C            -2.800000            -4.849742             0.082221
C            -1.400000            -4.849742             0.073534
H            -3.350000            -5.802370             0.089349
C            -0.700000            -6.062178             0.015968
C             0.700000            -6.062178             0.042229
H            -1.250000            -7.014806             0.062891
H             1.250000            -7.014806             0.059678
