84
isomero_5_6
C             0.700000             1.212436             0.038324
C            -0.700000             1.212436             0.009347
B            -1.400000             0.000000             0.019896
C            -0.700000            -1.212436             0.036088
C             0.700000            -1.212436             0.092414
C             1.400000            -0.000000             0.043907
H             1.250000             2.165064             0.037712
H            -1.250000             2.165064             0.047480
C             2.800000             0.000000             0.008464
C             1.400000            -2.424871             0.047790
C             2.800000            -2.424871             0.077129
C             3.500000            -1.212436             0.014981
H             3.350000             0.952628             0.030356
C             4.900000            -1.212436             0.098489
C             3.500000            -3.637307             0.039616
C             4.900000            -3.637307             0.066370
C             5.600000            -2.424871             0.077188
H             5.450000            -0.259808             0.061381
C             7.000000            -2.424871             0.017795
C             5.600000            -4.849742             0.001951
C             7.000000            -4.849742             0.019775
C             7.700000            -3.637307             0.054936
H             7.550000            -1.472243             0.031048
C             9.100000            -3.637307             0.020181
C             7.700000            -6.062178             0.049945
C             9.100000            -6.062178             0.060916
C             9.800000            -4.849742             0.080778
H             9.650000            -2.684679             0.061542
C            11.200000            -4.849742             0.040562
C             9.800000            -7.274613             0.047112
C            11.200000            -7.274613             0.000731
C            11.900000            -6.062178             0.043661
H            11.750000            -3.897114             0.016036
C            13.300000            -6.062178             0.046920
C            11.900000            -8.487049             0.081644
C            13.300000            -8.487049             0.054709
C            14.000000            -7.274613             0.004136
H            13.850000            -5.109550             0.027979
H            13.850000            -9.439677             0.005274
H            15.100000            -7.274613             0.035158
N            -2.800000             0.000000             0.014036
C            -3.500000            -1.212436             0.035983
C            -2.800000            -2.424871             0.020215
C            -1.400000            -2.424871             0.029126
H            -3.350000             0.952628             0.074970
C            -0.700000            -3.637307             0.078999
C             0.700000            -3.637307             0.099415
C             1.400000            -4.849742             0.087690
C             2.800000            -4.849742             0.020671
C             3.500000            -6.062178             0.021029
C             4.900000            -6.062178             0.094263
C             5.600000            -7.274613             0.066690
C             7.000000            -7.274613             0.008981
C             7.700000            -8.487049             0.048903
C             9.100000            -8.487049             0.015446
C             9.800000            -9.699485             0.087553
C            11.200000            -9.699485             0.088482
H            11.750000           -10.652112             0.065927
C            -4.900000            -1.212436             0.002700
C            -5.600000            -2.424871             0.095805
C            -4.900000            -3.637307             0.064596
C            -3.500000            -3.637307             0.009001
H            -5.450000            -0.259808             0.028200
H            -6.700000            -2.424871             0.076695
H            -5.450000            -4.589935             0.019590
C            -2.800000            -4.849742             0.002493
C            -1.400000            -4.849742             0.013174
H            -3.350000            -5.802370             0.034901
C            -0.700000            -6.062178             0.068953
C             0.700000            -6.062178             0.009561
H            -1.250000            -7.014806             0.049922
C             1.400000            -7.274613             0.013197
C             2.800000            -7.274613             0.062685
H             0.850000            -8.227241             0.054386
C             3.500000            -8.487049             0.060379
C             4.900000            -8.487049             0.080454
H             2.950000            -9.439677             0.052239
C             5.600000            -9.699485             0.010105
C             7.000000            -9.699485             0.067841
H             5.050000           -10.652112             0.081854
C             7.700000           -10.911920             0.037602
C             9.100000           -10.911920             0.000007
H             7.150000           -11.864548             0.001629
H             9.650000           -11.864548             0.025953
