84
isomero_10_9
C             0.700000             1.212436             0.067863
C            -0.700000             1.212436             0.017170
C            -1.400000             0.000000             0.017666
B            -0.700000            -1.212436             0.089586
N             0.700000            -1.212436             0.008098
C             1.400000            -0.000000             0.007184
H             1.250000             2.165064             0.002344
H            -1.250000             2.165064             0.057251
C             2.800000             0.000000             0.032539
C             1.400000            -2.424871             0.052491
C             2.800000            -2.424871             0.040191
C             3.500000            -1.212436             0.062923
H             3.350000             0.952628             0.063162
C             4.900000            -1.212436             0.034268
C             3.500000            -3.637307             0.095666
C             4.900000            -3.637307             0.033334
C             5.600000            -2.424871             0.067104
H             5.450000            -0.259808             0.002617
C             7.000000            -2.424871             0.086177
C             5.600000            -4.849742             0.033517
C             7.000000            -4.849742             0.092007
C             7.700000            -3.637307             0.024608
H             7.550000            -1.472243             0.007766
C             9.100000            -3.637307             0.028344
C             7.700000            -6.062178             0.030294
C             9.100000            -6.062178             0.062216
C             9.800000            -4.849742             0.058178
H             9.650000            -2.684679             0.069232
C            11.200000            -4.849742             0.014356
C             9.800000            -7.274613             0.034800
C            11.200000            -7.274613             0.062339
C            11.900000            -6.062178             0.085898
H            11.750000            -3.897114             0.047157
C            13.300000            -6.062178             0.069072
C            11.900000            -8.487049             0.009376
C            13.300000            -8.487049             0.005760
C            14.000000            -7.274613             0.082520
H            13.850000            -5.109550             0.009079
H            13.850000            -9.439677             0.020638
H            15.100000            -7.274613             0.079324
C            -2.800000             0.000000             0.068173
C            -3.500000            -1.212436             0.046999
C            -2.800000            -2.424871             0.089777
C            -1.400000            -2.424871             0.040853
H            -3.350000             0.952628             0.065855
C            -0.700000            -3.637307             0.095842
C             0.700000            -3.637307             0.030182
C             1.400000            -4.849742             0.072486
C             2.800000            -4.849742             0.075190
C             3.500000            -6.062178             0.018563
C             4.900000            -6.062178             0.056838
C             5.600000            -7.274613             0.006111
C             7.000000            -7.274613             0.068328
C             7.700000            -8.487049             0.066873
C             9.100000            -8.487049             0.013420
C             9.800000            -9.699485             0.089310
C            11.200000            -9.699485             0.016966
H            11.750000           -10.652112             0.054411
C            -4.900000            -1.212436             0.003461
C            -5.600000            -2.424871             0.081456
C            -4.900000            -3.637307             0.059510
C            -3.500000            -3.637307             0.040580
H            -5.450000            -0.259808             0.064404
H            -6.700000            -2.424871             0.036634
H            -5.450000            -4.589935             0.099997
C            -2.800000            -4.849742             0.070605
C            -1.400000            -4.849742             0.019680
H            -3.350000            -5.802370             0.082957
C            -0.700000            -6.062178             0.030249
C             0.700000            -6.062178             0.052302
H            -1.250000            -7.014806             0.062486
C             1.400000            -7.274613             0.000475
C             2.800000            -7.274613             0.077537
H             0.850000            -8.227241             0.021240
C             3.500000            -8.487049             0.020398
C             4.900000            -8.487049             0.079480
H             2.950000            -9.439677             0.026990
C             5.600000            -9.699485             0.083079
C             7.000000            -9.699485             0.099726
H             5.050000           -10.652112             0.039538
C             7.700000           -10.911920             0.089964
C             9.100000           -10.911920             0.053084
H             7.150000           -11.864548             0.008225
H             9.650000           -11.864548             0.041855
