84
isomero_29_38
C             0.700000             1.212436             0.030265
C            -0.700000             1.212436             0.093690
C            -1.400000             0.000000             0.041965
C            -0.700000            -1.212436             0.002541
C             0.700000            -1.212436             0.023569
C             1.400000            -0.000000             0.074909
H             1.250000             2.165064             0.089499
H            -1.250000             2.165064             0.073075
C             2.800000             0.000000             0.028753
C             1.400000            -2.424871             0.079327
C             2.800000            -2.424871             0.022787
C             3.500000            -1.212436             0.054666
H             3.350000             0.952628             0.032957
C             4.900000            -1.212436             0.067212
C             3.500000            -3.637307             0.069957
C             4.900000            -3.637307             0.057419
C             5.600000            -2.424871             0.069910
H             5.450000            -0.259808             0.090227
C             7.000000            -2.424871             0.048981
C             5.600000            -4.849742             0.026450
C             7.000000            -4.849742             0.068877
C             7.700000            -3.637307             0.083836
H             7.550000            -1.472243             0.097380
C             9.100000            -3.637307             0.087401
C             7.700000            -6.062178             0.038857
N             9.100000            -6.062178             0.006862
B             9.800000            -4.849742             0.058866
H             9.650000            -2.684679             0.066598
C            11.200000            -4.849742             0.026879
C             9.800000            -7.274613             0.063326
C            11.200000            -7.274613             0.077544
C            11.900000            -6.062178             0.064591
H            11.750000            -3.897114             0.064649
C            13.300000            -6.062178             0.028974
C            11.900000            -8.487049             0.078848
C            13.300000            -8.487049             0.029072
C            14.000000            -7.274613             0.096038
H            13.850000            -5.109550             0.042103
H            13.850000            -9.439677             0.044693
H            15.100000            -7.274613             0.035527
C            -2.800000             0.000000             0.027627
C            -3.500000            -1.212436             0.095250
C            -2.800000            -2.424871             0.031533
C            -1.400000            -2.424871             0.025808
H            -3.350000             0.952628             0.004812
C            -0.700000            -3.637307             0.029508
C             0.700000            -3.637307             0.011386
C             1.400000            -4.849742             0.074502
C             2.800000            -4.849742             0.026367
C             3.500000            -6.062178             0.084130
C             4.900000            -6.062178             0.075980
C             5.600000            -7.274613             0.025530
C             7.000000            -7.274613             0.069215
C             7.700000            -8.487049             0.009571
C             9.100000            -8.487049             0.071656
C             9.800000            -9.699485             0.064369
C            11.200000            -9.699485             0.088471
H            11.750000           -10.652112             0.036697
C            -4.900000            -1.212436             0.016465
C            -5.600000            -2.424871             0.017939
C            -4.900000            -3.637307             0.043974
C            -3.500000            -3.637307             0.033641
H            -5.450000            -0.259808             0.032402
H            -6.700000            -2.424871             0.009739
H            -5.450000            -4.589935             0.051463
C            -2.800000            -4.849742             0.004491
C            -1.400000            -4.849742             0.051466
H            -3.350000            -5.802370             0.003795
C            -0.700000            -6.062178             0.038088
C             0.700000            -6.062178             0.058412
H            -1.250000            -7.014806             0.093578
C             1.400000            -7.274613             0.001695
C             2.800000            -7.274613             0.031275
H             0.850000            -8.227241             0.065896
C             3.500000            -8.487049             0.033117
C             4.900000            -8.487049             0.033991
H             2.950000            -9.439677             0.078573
C             5.600000            -9.699485             0.022795
C             7.000000            -9.699485             0.006283
H             5.050000           -10.652112             0.093660
C             7.700000           -10.911920             0.005862
C             9.100000           -10.911920             0.005970
H             7.150000           -11.864548             0.052200
H             9.650000           -11.864548             0.097590
