84
isomero_38_46
C             0.700000             1.212436             0.023792
C            -0.700000             1.212436             0.005135
C            -1.400000             0.000000             0.011000
C            -0.700000            -1.212436             0.080204
C             0.700000            -1.212436             0.038988
C             1.400000            -0.000000             0.057164
H             1.250000             2.165064             0.014652
H            -1.250000             2.165064             0.050576
C             2.800000             0.000000             0.094555
C             1.400000            -2.424871             0.090116
C             2.800000            -2.424871             0.041719
C             3.500000            -1.212436             0.045468
H             3.350000             0.952628             0.032115
C             4.900000            -1.212436             0.009951
C             3.500000            -3.637307             0.043100
C             4.900000            -3.637307             0.031479
C             5.600000            -2.424871             0.098779
H             5.450000            -0.259808             0.043405
C             7.000000            -2.424871             0.040137
C             5.600000            -4.849742             0.039476
C             7.000000            -4.849742             0.016269
C             7.700000            -3.637307             0.041752
H             7.550000            -1.472243             0.050881
C             9.100000            -3.637307             0.028219
C             7.700000            -6.062178             0.065207
B             9.100000            -6.062178             0.062174
C             9.800000            -4.849742             0.070863
H             9.650000            -2.684679             0.025306
C            11.200000            -4.849742             0.049032
N             9.800000            -7.274613             0.032183
C            11.200000            -7.274613             0.064727
C            11.900000            -6.062178             0.098188
H            11.750000            -3.897114             0.078157
C            13.300000            -6.062178             0.039386
C            11.900000            -8.487049             0.045776
C            13.300000            -8.487049             0.055188
C            14.000000            -7.274613             0.066988
H            13.850000            -5.109550             0.078608
H            13.850000            -9.439677             0.040834
H            15.100000            -7.274613             0.069455
C            -2.800000             0.000000             0.028088
C            -3.500000            -1.212436             0.013691
C            -2.800000            -2.424871             0.001191
C            -1.400000            -2.424871             0.003622
H            -3.350000             0.952628             0.035284
C            -0.700000            -3.637307             0.080363
C             0.700000            -3.637307             0.043560
C             1.400000            -4.849742             0.014419
C             2.800000            -4.849742             0.031194
C             3.500000            -6.062178             0.012651
C             4.900000            -6.062178             0.083970
C             5.600000            -7.274613             0.044620
C             7.000000            -7.274613             0.009866
C             7.700000            -8.487049             0.094233
C             9.100000            -8.487049             0.096262
C             9.800000            -9.699485             0.027511
C            11.200000            -9.699485             0.084433
H            11.750000           -10.652112             0.087918
C            -4.900000            -1.212436             0.062501
C            -5.600000            -2.424871             0.046163
C            -4.900000            -3.637307             0.069273
C            -3.500000            -3.637307             0.031416
H            -5.450000            -0.259808             0.051596
H            -6.700000            -2.424871             0.034512
H            -5.450000            -4.589935             0.055593
C            -2.800000            -4.849742             0.071319
C            -1.400000            -4.849742             0.036079
H            -3.350000            -5.802370             0.016922
C            -0.700000            -6.062178             0.065022
C             0.700000            -6.062178             0.033776
H            -1.250000            -7.014806             0.052289
C             1.400000            -7.274613             0.062283
C             2.800000            -7.274613             0.067944
H             0.850000            -8.227241             0.092318
C             3.500000            -8.487049             0.008672
C             4.900000            -8.487049             0.051164
H             2.950000            -9.439677             0.059673
C             5.600000            -9.699485             0.073948
C             7.000000            -9.699485             0.017429
H             5.050000           -10.652112             0.055271
C             7.700000           -10.911920             0.069261
C             9.100000           -10.911920             0.002344
H             7.150000           -11.864548             0.070493
H             9.650000           -11.864548             0.037755
