84
isomero_20_29
C             0.700000             1.212436             0.087145
C            -0.700000             1.212436             0.034980
C            -1.400000             0.000000             0.066208
C            -0.700000            -1.212436             0.035926
C             0.700000            -1.212436             0.016500
C             1.400000            -0.000000             0.061287
H             1.250000             2.165064             0.008124
H            -1.250000             2.165064             0.094785
C             2.800000             0.000000             0.062541
C             1.400000            -2.424871             0.027957
C             2.800000            -2.424871             0.049954
C             3.500000            -1.212436             0.069930
H             3.350000             0.952628             0.079345
C             4.900000            -1.212436             0.051044
C             3.500000            -3.637307             0.008647
C             4.900000            -3.637307             0.067152
C             5.600000            -2.424871             0.030458
H             5.450000            -0.259808             0.095132
C             7.000000            -2.424871             0.054126
C             5.600000            -4.849742             0.014053
C             7.000000            -4.849742             0.091355
C             7.700000            -3.637307             0.005724
H             7.550000            -1.472243             0.031296
B             9.100000            -3.637307             0.022829
C             7.700000            -6.062178             0.086643
C             9.100000            -6.062178             0.087122
N             9.800000            -4.849742             0.086217
H             9.650000            -2.684679             0.023489
C            11.200000            -4.849742             0.035908
C             9.800000            -7.274613             0.050145
C            11.200000            -7.274613             0.054779
C            11.900000            -6.062178             0.048008
H            11.750000            -3.897114             0.083612
C            13.300000            -6.062178             0.019814
C            11.900000            -8.487049             0.013633
C            13.300000            -8.487049             0.003348
C            14.000000            -7.274613             0.078383
H            13.850000            -5.109550             0.079388
H            13.850000            -9.439677             0.065331
H            15.100000            -7.274613             0.069202
C            -2.800000             0.000000             0.004215
C            -3.500000            -1.212436             0.093463
C            -2.800000            -2.424871             0.059875
C            -1.400000            -2.424871             0.013942
H            -3.350000             0.952628             0.076709
C            -0.700000            -3.637307             0.061591
C             0.700000            -3.637307             0.057739
C             1.400000            -4.849742             0.050699
C             2.800000            -4.849742             0.083136
C             3.500000            -6.062178             0.034223
C             4.900000            -6.062178             0.087851
C             5.600000            -7.274613             0.031011
C             7.000000            -7.274613             0.068282
C             7.700000            -8.487049             0.000497
C             9.100000            -8.487049             0.033704
C             9.800000            -9.699485             0.045739
C            11.200000            -9.699485             0.028949
H            11.750000           -10.652112             0.076902
C            -4.900000            -1.212436             0.013504
C            -5.600000            -2.424871             0.085204
C            -4.900000            -3.637307             0.078837
C            -3.500000            -3.637307             0.068197
H            -5.450000            -0.259808             0.038863
H            -6.700000            -2.424871             0.086721
H            -5.450000            -4.589935             0.018136
C            -2.800000            -4.849742             0.021254
C            -1.400000            -4.849742             0.096241
H            -3.350000            -5.802370             0.043378
C            -0.700000            -6.062178             0.059556
C             0.700000            -6.062178             0.075455
H            -1.250000            -7.014806             0.069230
C             1.400000            -7.274613             0.044393
C             2.800000            -7.274613             0.061575
H             0.850000            -8.227241             0.016720
C             3.500000            -8.487049             0.064877
C             4.900000            -8.487049             0.024784
H             2.950000            -9.439677             0.051567
C             5.600000            -9.699485             0.056633
C             7.000000            -9.699485             0.072164
H             5.050000           -10.652112             0.033124
C             7.700000           -10.911920             0.099059
C             9.100000           -10.911920             0.031856
H             7.150000           -11.864548             0.017149
H             9.650000           -11.864548             0.079195
