84
isomero_4_3
C             0.700000             1.212436             0.036567
C            -0.700000             1.212436             0.099455
C            -1.400000             0.000000             0.015297
C            -0.700000            -1.212436             0.083239
C             0.700000            -1.212436             0.027375
B             1.400000            -0.000000             0.091269
H             1.250000             2.165064             0.047170
H            -1.250000             2.165064             0.098611
N             2.800000             0.000000             0.008728
C             1.400000            -2.424871             0.060371
C             2.800000            -2.424871             0.003833
C             3.500000            -1.212436             0.029386
H             3.350000             0.952628             0.048532
C             4.900000            -1.212436             0.016866
C             3.500000            -3.637307             0.060893
C             4.900000            -3.637307             0.050465
C             5.600000            -2.424871             0.078565
H             5.450000            -0.259808             0.014092
C             7.000000            -2.424871             0.034425
C             5.600000            -4.849742             0.014533
C             7.000000            -4.849742             0.048842
C             7.700000            -3.637307             0.046985
H             7.550000            -1.472243             0.084055
C             9.100000            -3.637307             0.053260
C             7.700000            -6.062178             0.081733
C             9.100000            -6.062178             0.075453
C             9.800000            -4.849742             0.003903
H             9.650000            -2.684679             0.010437
C            11.200000            -4.849742             0.029011
C             9.800000            -7.274613             0.054470
C            11.200000            -7.274613             0.012153
C            11.900000            -6.062178             0.060567
H            11.750000            -3.897114             0.066007
C            13.300000            -6.062178             0.036060
C            11.900000            -8.487049             0.026655
C            13.300000            -8.487049             0.088892
C            14.000000            -7.274613             0.037512
H            13.850000            -5.109550             0.067437
H            13.850000            -9.439677             0.032382
H            15.100000            -7.274613             0.080922
C            -2.800000             0.000000             0.008918
C            -3.500000            -1.212436             0.034075
C            -2.800000            -2.424871             0.050082
C            -1.400000            -2.424871             0.013179
H            -3.350000             0.952628             0.096559
C            -0.700000            -3.637307             0.040858
C             0.700000            -3.637307             0.097123
C             1.400000            -4.849742             0.063709
C             2.800000            -4.849742             0.046062
C             3.500000            -6.062178             0.025156
C             4.900000            -6.062178             0.017796
C             5.600000            -7.274613             0.058902
C             7.000000            -7.274613             0.015952
C             7.700000            -8.487049             0.040169
C             9.100000            -8.487049             0.063818
C             9.800000            -9.699485             0.070071
C            11.200000            -9.699485             0.044792
H            11.750000           -10.652112             0.027523
C            -4.900000            -1.212436             0.006706
C            -5.600000            -2.424871             0.051914
C            -4.900000            -3.637307             0.055594
C            -3.500000            -3.637307             0.080872
H            -5.450000            -0.259808             0.060835
H            -6.700000            -2.424871             0.050727
H            -5.450000            -4.589935             0.054209
C            -2.800000            -4.849742             0.045370
C            -1.400000            -4.849742             0.027128
H            -3.350000            -5.802370             0.082918
C            -0.700000            -6.062178             0.047284
C             0.700000            -6.062178             0.064356
H            -1.250000            -7.014806             0.059671
C             1.400000            -7.274613             0.013595
C             2.800000            -7.274613             0.024861
H             0.850000            -8.227241             0.032883
C             3.500000            -8.487049             0.005488
C             4.900000            -8.487049             0.072057
H             2.950000            -9.439677             0.079143
C             5.600000            -9.699485             0.097824
C             7.000000            -9.699485             0.009919
H             5.050000           -10.652112             0.069911
C             7.700000           -10.911920             0.013582
C             9.100000           -10.911920             0.031561
H             7.150000           -11.864548             0.041289
H             9.650000           -11.864548             0.002572
