84
isomero_3_8
C             0.700000             1.212436             0.031774
C            -0.700000             1.212436             0.072277
C            -1.400000             0.000000             0.084820
C            -0.700000            -1.212436             0.006162
C             0.700000            -1.212436             0.066344
C             1.400000            -0.000000             0.082294
H             1.250000             2.165064             0.010436
H            -1.250000             2.165064             0.009373
B             2.800000             0.000000             0.059757
C             1.400000            -2.424871             0.064436
C             2.800000            -2.424871             0.007107
N             3.500000            -1.212436             0.095671
H             3.350000             0.952628             0.011343
C             4.900000            -1.212436             0.000431
C             3.500000            -3.637307             0.063078
C             4.900000            -3.637307             0.085188
C             5.600000            -2.424871             0.044613
H             5.450000            -0.259808             0.087419
C             7.000000            -2.424871             0.081919
C             5.600000            -4.849742             0.017740
C             7.000000            -4.849742             0.011384
C             7.700000            -3.637307             0.045340
H             7.550000            -1.472243             0.093261
C             9.100000            -3.637307             0.064860
C             7.700000            -6.062178             0.003043
C             9.100000            -6.062178             0.099471
C             9.800000            -4.849742             0.057150
H             9.650000            -2.684679             0.081529
C            11.200000            -4.849742             0.031581
C             9.800000            -7.274613             0.011269
C            11.200000            -7.274613             0.005861
C            11.900000            -6.062178             0.087889
H            11.750000            -3.897114             0.007654
C            13.300000            -6.062178             0.050506
C            11.900000            -8.487049             0.017105
C            13.300000            -8.487049             0.009100
C            14.000000            -7.274613             0.008269
H            13.850000            -5.109550             0.025448
H            13.850000            -9.439677             0.059097
H            15.100000            -7.274613             0.027836
C            -2.800000             0.000000             0.023316
C            -3.500000            -1.212436             0.020574
C            -2.800000            -2.424871             0.031682
C            -1.400000            -2.424871             0.094084
H            -3.350000             0.952628             0.036719
C            -0.700000            -3.637307             0.003618
C             0.700000            -3.637307             0.029249
C             1.400000            -4.849742             0.084947
C             2.800000            -4.849742             0.047350
C             3.500000            -6.062178             0.051272
C             4.900000            -6.062178             0.021433
C             5.600000            -7.274613             0.092374
C             7.000000            -7.274613             0.016551
C             7.700000            -8.487049             0.028610
C             9.100000            -8.487049             0.000401
C             9.800000            -9.699485             0.043625
C            11.200000            -9.699485             0.038448
H            11.750000           -10.652112             0.099204
C            -4.900000            -1.212436             0.026294
C            -5.600000            -2.424871             0.020556
C            -4.900000            -3.637307             0.009477
C            -3.500000            -3.637307             0.013894
H            -5.450000            -0.259808             0.092946
H            -6.700000            -2.424871             0.080938
H            -5.450000            -4.589935             0.087091
C            -2.800000            -4.849742             0.086198
C            -1.400000            -4.849742             0.022431
H            -3.350000            -5.802370             0.068738
C            -0.700000            -6.062178             0.029981
C             0.700000            -6.062178             0.076905
H            -1.250000            -7.014806             0.082953
C             1.400000            -7.274613             0.079262
C             2.800000            -7.274613             0.061025
H             0.850000            -8.227241             0.014337
C             3.500000            -8.487049             0.092155
C             4.900000            -8.487049             0.042314
H             2.950000            -9.439677             0.012865
C             5.600000            -9.699485             0.007339
C             7.000000            -9.699485             0.056999
H             5.050000           -10.652112             0.013808
C             7.700000           -10.911920             0.012069
C             9.100000           -10.911920             0.038007
H             7.150000           -11.864548             0.099523
H             9.650000           -11.864548             0.035081
