84
isomero_28_29
C             0.700000             1.212436             0.064466
C            -0.700000             1.212436             0.046524
C            -1.400000             0.000000             0.040140
C            -0.700000            -1.212436             0.081031
C             0.700000            -1.212436             0.006105
C             1.400000            -0.000000             0.006665
H             1.250000             2.165064             0.095010
H            -1.250000             2.165064             0.057724
C             2.800000             0.000000             0.099223
C             1.400000            -2.424871             0.018854
C             2.800000            -2.424871             0.095119
C             3.500000            -1.212436             0.064556
H             3.350000             0.952628             0.041888
C             4.900000            -1.212436             0.011767
C             3.500000            -3.637307             0.027298
C             4.900000            -3.637307             0.005502
C             5.600000            -2.424871             0.002255
H             5.450000            -0.259808             0.061000
C             7.000000            -2.424871             0.093526
C             5.600000            -4.849742             0.071958
C             7.000000            -4.849742             0.004772
C             7.700000            -3.637307             0.086173
H             7.550000            -1.472243             0.005030
C             9.100000            -3.637307             0.081300
C             7.700000            -6.062178             0.030791
C             9.100000            -6.062178             0.087688
N             9.800000            -4.849742             0.052177
H             9.650000            -2.684679             0.047850
B            11.200000            -4.849742             0.045181
C             9.800000            -7.274613             0.033957
C            11.200000            -7.274613             0.039470
C            11.900000            -6.062178             0.038964
H            11.750000            -3.897114             0.059222
C            13.300000            -6.062178             0.009331
C            11.900000            -8.487049             0.039272
C            13.300000            -8.487049             0.089562
C            14.000000            -7.274613             0.050057
H            13.850000            -5.109550             0.091320
H            13.850000            -9.439677             0.016040
H            15.100000            -7.274613             0.029325
C            -2.800000             0.000000             0.083646
C            -3.500000            -1.212436             0.078641
C            -2.800000            -2.424871             0.092255
C            -1.400000            -2.424871             0.021184
H            -3.350000             0.952628             0.035617
C            -0.700000            -3.637307             0.069222
C             0.700000            -3.637307             0.093117
C             1.400000            -4.849742             0.043268
C             2.800000            -4.849742             0.060987
C             3.500000            -6.062178             0.068778
C             4.900000            -6.062178             0.079483
C             5.600000            -7.274613             0.086656
C             7.000000            -7.274613             0.044504
C             7.700000            -8.487049             0.071938
C             9.100000            -8.487049             0.077544
C             9.800000            -9.699485             0.046859
C            11.200000            -9.699485             0.062115
H            11.750000           -10.652112             0.068731
C            -4.900000            -1.212436             0.016594
C            -5.600000            -2.424871             0.027004
C            -4.900000            -3.637307             0.050418
C            -3.500000            -3.637307             0.020600
H            -5.450000            -0.259808             0.045248
H            -6.700000            -2.424871             0.080424
H            -5.450000            -4.589935             0.067277
C            -2.800000            -4.849742             0.026457
C            -1.400000            -4.849742             0.001750
H            -3.350000            -5.802370             0.062446
C            -0.700000            -6.062178             0.067299
C             0.700000            -6.062178             0.040091
H            -1.250000            -7.014806             0.088597
C             1.400000            -7.274613             0.048235
C             2.800000            -7.274613             0.048058
H             0.850000            -8.227241             0.090905
C             3.500000            -8.487049             0.031410
C             4.900000            -8.487049             0.027839
H             2.950000            -9.439677             0.086118
C             5.600000            -9.699485             0.084682
C             7.000000            -9.699485             0.082245
H             5.050000           -10.652112             0.058787
C             7.700000           -10.911920             0.098424
C             9.100000           -10.911920             0.025059
H             7.150000           -11.864548             0.074963
H             9.650000           -11.864548             0.030843
