84
isomero_18_26
C             0.700000             1.212436             0.075588
C            -0.700000             1.212436             0.085892
C            -1.400000             0.000000             0.083855
C            -0.700000            -1.212436             0.067626
C             0.700000            -1.212436             0.052065
C             1.400000            -0.000000             0.095225
H             1.250000             2.165064             0.074426
H            -1.250000             2.165064             0.072240
C             2.800000             0.000000             0.012565
C             1.400000            -2.424871             0.058803
C             2.800000            -2.424871             0.021668
C             3.500000            -1.212436             0.003448
H             3.350000             0.952628             0.099881
C             4.900000            -1.212436             0.037764
C             3.500000            -3.637307             0.095981
C             4.900000            -3.637307             0.042352
C             5.600000            -2.424871             0.016476
H             5.450000            -0.259808             0.026162
C             7.000000            -2.424871             0.031283
C             5.600000            -4.849742             0.019459
C             7.000000            -4.849742             0.011677
C             7.700000            -3.637307             0.094606
H             7.550000            -1.472243             0.044011
C             9.100000            -3.637307             0.099696
C             7.700000            -6.062178             0.041474
C             9.100000            -6.062178             0.051269
C             9.800000            -4.849742             0.015187
H             9.650000            -2.684679             0.045380
C            11.200000            -4.849742             0.096278
C             9.800000            -7.274613             0.002477
C            11.200000            -7.274613             0.000115
C            11.900000            -6.062178             0.053162
H            11.750000            -3.897114             0.078763
C            13.300000            -6.062178             0.024320
C            11.900000            -8.487049             0.091671
C            13.300000            -8.487049             0.057854
C            14.000000            -7.274613             0.084066
H            13.850000            -5.109550             0.000438
H            13.850000            -9.439677             0.065059
H            15.100000            -7.274613             0.025961
C            -2.800000             0.000000             0.072939
C            -3.500000            -1.212436             0.033919
B            -2.800000            -2.424871             0.014894
C            -1.400000            -2.424871             0.036077
H            -3.350000             0.952628             0.001276
C            -0.700000            -3.637307             0.000891
C             0.700000            -3.637307             0.038856
C             1.400000            -4.849742             0.088697
C             2.800000            -4.849742             0.094269
C             3.500000            -6.062178             0.033093
C             4.900000            -6.062178             0.038398
C             5.600000            -7.274613             0.048758
C             7.000000            -7.274613             0.061552
C             7.700000            -8.487049             0.011346
C             9.100000            -8.487049             0.030750
C             9.800000            -9.699485             0.079517
C            11.200000            -9.699485             0.047341
H            11.750000           -10.652112             0.025506
C            -4.900000            -1.212436             0.055538
C            -5.600000            -2.424871             0.096326
C            -4.900000            -3.637307             0.016269
N            -3.500000            -3.637307             0.056945
H            -5.450000            -0.259808             0.070046
H            -6.700000            -2.424871             0.069145
H            -5.450000            -4.589935             0.086925
C            -2.800000            -4.849742             0.003174
C            -1.400000            -4.849742             0.006046
H            -3.350000            -5.802370             0.052576
C            -0.700000            -6.062178             0.036400
C             0.700000            -6.062178             0.053464
H            -1.250000            -7.014806             0.070127
C             1.400000            -7.274613             0.033829
C             2.800000            -7.274613             0.097658
H             0.850000            -8.227241             0.064965
C             3.500000            -8.487049             0.094582
C             4.900000            -8.487049             0.063971
H             2.950000            -9.439677             0.005793
C             5.600000            -9.699485             0.042541
C             7.000000            -9.699485             0.047281
H             5.050000           -10.652112             0.095587
C             7.700000           -10.911920             0.057139
C             9.100000           -10.911920             0.003674
H             7.150000           -11.864548             0.080349
H             9.650000           -11.864548             0.033698
