84
isomero_11_6
C             0.700000             1.212436             0.074276
C            -0.700000             1.212436             0.027242
C            -1.400000             0.000000             0.038635
C            -0.700000            -1.212436             0.075361
C             0.700000            -1.212436             0.049347
C             1.400000            -0.000000             0.066518
H             1.250000             2.165064             0.090187
H            -1.250000             2.165064             0.033429
C             2.800000             0.000000             0.029557
C             1.400000            -2.424871             0.061810
C             2.800000            -2.424871             0.018248
C             3.500000            -1.212436             0.021215
H             3.350000             0.952628             0.080635
C             4.900000            -1.212436             0.010872
C             3.500000            -3.637307             0.067731
C             4.900000            -3.637307             0.019488
C             5.600000            -2.424871             0.037179
H             5.450000            -0.259808             0.053972
C             7.000000            -2.424871             0.025114
C             5.600000            -4.849742             0.071915
C             7.000000            -4.849742             0.032116
C             7.700000            -3.637307             0.003764
H             7.550000            -1.472243             0.081186
C             9.100000            -3.637307             0.004531
C             7.700000            -6.062178             0.029752
C             9.100000            -6.062178             0.030392
C             9.800000            -4.849742             0.053639
H             9.650000            -2.684679             0.012020
C            11.200000            -4.849742             0.079527
C             9.800000            -7.274613             0.050255
C            11.200000            -7.274613             0.022799
C            11.900000            -6.062178             0.083128
H            11.750000            -3.897114             0.011344
C            13.300000            -6.062178             0.099932
C            11.900000            -8.487049             0.075830
C            13.300000            -8.487049             0.051846
C            14.000000            -7.274613             0.047662
H            13.850000            -5.109550             0.027251
H            13.850000            -9.439677             0.096316
H            15.100000            -7.274613             0.031945
N            -2.800000             0.000000             0.045295
B            -3.500000            -1.212436             0.053322
C            -2.800000            -2.424871             0.078338
C            -1.400000            -2.424871             0.041234
H            -3.350000             0.952628             0.090980
C            -0.700000            -3.637307             0.012065
C             0.700000            -3.637307             0.087247
C             1.400000            -4.849742             0.065139
C             2.800000            -4.849742             0.043150
C             3.500000            -6.062178             0.013716
C             4.900000            -6.062178             0.001842
C             5.600000            -7.274613             0.036574
C             7.000000            -7.274613             0.001731
C             7.700000            -8.487049             0.047144
C             9.100000            -8.487049             0.013166
C             9.800000            -9.699485             0.084485
C            11.200000            -9.699485             0.095741
H            11.750000           -10.652112             0.019613
C            -4.900000            -1.212436             0.073774
C            -5.600000            -2.424871             0.005559
C            -4.900000            -3.637307             0.051449
C            -3.500000            -3.637307             0.011878
H            -5.450000            -0.259808             0.064265
H            -6.700000            -2.424871             0.016266
H            -5.450000            -4.589935             0.006167
C            -2.800000            -4.849742             0.055850
C            -1.400000            -4.849742             0.014438
H            -3.350000            -5.802370             0.036828
C            -0.700000            -6.062178             0.020119
C             0.700000            -6.062178             0.000018
H            -1.250000            -7.014806             0.081000
C             1.400000            -7.274613             0.090307
C             2.800000            -7.274613             0.044065
H             0.850000            -8.227241             0.036583
C             3.500000            -8.487049             0.036481
C             4.900000            -8.487049             0.028787
H             2.950000            -9.439677             0.083509
C             5.600000            -9.699485             0.097588
C             7.000000            -9.699485             0.021429
H             5.050000           -10.652112             0.066601
C             7.700000           -10.911920             0.044075
C             9.100000           -10.911920             0.041279
H             7.150000           -11.864548             0.084655
H             9.650000           -11.864548             0.050236
