84
isomero_13_21
C             0.700000             1.212436             0.063072
C            -0.700000             1.212436             0.048154
C            -1.400000             0.000000             0.085502
C            -0.700000            -1.212436             0.092133
C             0.700000            -1.212436             0.032559
C             1.400000            -0.000000             0.095258
H             1.250000             2.165064             0.073343
H            -1.250000             2.165064             0.008992
C             2.800000             0.000000             0.036337
C             1.400000            -2.424871             0.042472
C             2.800000            -2.424871             0.098577
C             3.500000            -1.212436             0.078015
H             3.350000             0.952628             0.055539
C             4.900000            -1.212436             0.063275
C             3.500000            -3.637307             0.009057
C             4.900000            -3.637307             0.067090
C             5.600000            -2.424871             0.003078
H             5.450000            -0.259808             0.055788
B             7.000000            -2.424871             0.099082
C             5.600000            -4.849742             0.026536
C             7.000000            -4.849742             0.032869
N             7.700000            -3.637307             0.099842
H             7.550000            -1.472243             0.066181
C             9.100000            -3.637307             0.021935
C             7.700000            -6.062178             0.056849
C             9.100000            -6.062178             0.035193
C             9.800000            -4.849742             0.004371
H             9.650000            -2.684679             0.090277
C            11.200000            -4.849742             0.024882
C             9.800000            -7.274613             0.003450
C            11.200000            -7.274613             0.013727
C            11.900000            -6.062178             0.025015
H            11.750000            -3.897114             0.038023
C            13.300000            -6.062178             0.093794
C            11.900000            -8.487049             0.003471
C            13.300000            -8.487049             0.037816
C            14.000000            -7.274613             0.017825
H            13.850000            -5.109550             0.003484
H            13.850000            -9.439677             0.087562
H            15.100000            -7.274613             0.097101
C            -2.800000             0.000000             0.058081
C            -3.500000            -1.212436             0.036938
C            -2.800000            -2.424871             0.091328
C            -1.400000            -2.424871             0.063757
H            -3.350000             0.952628             0.047029
C            -0.700000            -3.637307             0.089006
C             0.700000            -3.637307             0.017934
C             1.400000            -4.849742             0.080032
C             2.800000            -4.849742             0.091228
C             3.500000            -6.062178             0.079094
C             4.900000            -6.062178             0.081252
C             5.600000            -7.274613             0.060953
C             7.000000            -7.274613             0.090032
C             7.700000            -8.487049             0.002749
C             9.100000            -8.487049             0.023151
C             9.800000            -9.699485             0.094445
C            11.200000            -9.699485             0.064006
H            11.750000           -10.652112             0.050948
C            -4.900000            -1.212436             0.062169
C            -5.600000            -2.424871             0.049716
C            -4.900000            -3.637307             0.061134
C            -3.500000            -3.637307             0.011098
H            -5.450000            -0.259808             0.023648
H            -6.700000            -2.424871             0.001745
H            -5.450000            -4.589935             0.082681
C            -2.800000            -4.849742             0.049261
C            -1.400000            -4.849742             0.051255
H            -3.350000            -5.802370             0.022621
C            -0.700000            -6.062178             0.018239
C             0.700000            -6.062178             0.092194
H            -1.250000            -7.014806             0.094529
C             1.400000            -7.274613             0.055597
C             2.800000            -7.274613             0.062455
H             0.850000            -8.227241             0.062569
C             3.500000            -8.487049             0.029231
C             4.900000            -8.487049             0.090108
H             2.950000            -9.439677             0.002006
C             5.600000            -9.699485             0.016829
C             7.000000            -9.699485             0.054271
H             5.050000           -10.652112             0.010531
C             7.700000           -10.911920             0.003909
C             9.100000           -10.911920             0.032264
H             7.150000           -11.864548             0.092088
H             9.650000           -11.864548             0.070475
