84
isomero_17_25
C             0.700000             1.212436             0.023293
C            -0.700000             1.212436             0.013831
C            -1.400000             0.000000             0.005173
C            -0.700000            -1.212436             0.077231
C             0.700000            -1.212436             0.070702
C             1.400000            -0.000000             0.061785
H             1.250000             2.165064             0.054393
H            -1.250000             2.165064             0.003225
C             2.800000             0.000000             0.057146
C             1.400000            -2.424871             0.095960
C             2.800000            -2.424871             0.082974
C             3.500000            -1.212436             0.039205
H             3.350000             0.952628             0.081143
C             4.900000            -1.212436             0.091092
C             3.500000            -3.637307             0.081055
C             4.900000            -3.637307             0.032224
C             5.600000            -2.424871             0.065747
H             5.450000            -0.259808             0.010995
C             7.000000            -2.424871             0.082726
C             5.600000            -4.849742             0.057181
C             7.000000            -4.849742             0.027316
C             7.700000            -3.637307             0.009502
H             7.550000            -1.472243             0.022500
C             9.100000            -3.637307             0.013791
C             7.700000            -6.062178             0.018790
C             9.100000            -6.062178             0.015287
C             9.800000            -4.849742             0.027790
H             9.650000            -2.684679             0.067127
C            11.200000            -4.849742             0.010681
C             9.800000            -7.274613             0.049379
C            11.200000            -7.274613             0.006279
C            11.900000            -6.062178             0.053419
H            11.750000            -3.897114             0.054942
C            13.300000            -6.062178             0.083570
C            11.900000            -8.487049             0.045700
C            13.300000            -8.487049             0.065481
C            14.000000            -7.274613             0.097503
H            13.850000            -5.109550             0.072196
H            13.850000            -9.439677             0.064666
H            15.100000            -7.274613             0.004353
C            -2.800000             0.000000             0.059717
C            -3.500000            -1.212436             0.049174
C            -2.800000            -2.424871             0.018224
B            -1.400000            -2.424871             0.089380
H            -3.350000             0.952628             0.015312
N            -0.700000            -3.637307             0.045922
C             0.700000            -3.637307             0.095091
C             1.400000            -4.849742             0.059286
C             2.800000            -4.849742             0.025230
C             3.500000            -6.062178             0.077025
C             4.900000            -6.062178             0.091288
C             5.600000            -7.274613             0.040206
C             7.000000            -7.274613             0.093172
C             7.700000            -8.487049             0.067251
C             9.100000            -8.487049             0.093003
C             9.800000            -9.699485             0.072987
C            11.200000            -9.699485             0.059181
H            11.750000           -10.652112             0.011065
C            -4.900000            -1.212436             0.078578
C            -5.600000            -2.424871             0.061331
C            -4.900000            -3.637307             0.035260
C            -3.500000            -3.637307             0.062332
H            -5.450000            -0.259808             0.047449
H            -6.700000            -2.424871             0.062594
H            -5.450000            -4.589935             0.064124
C            -2.800000            -4.849742             0.088768
C            -1.400000            -4.849742             0.007424
H            -3.350000            -5.802370             0.064838
C            -0.700000            -6.062178             0.061906
C             0.700000            -6.062178             0.043038
H            -1.250000            -7.014806             0.020701
C             1.400000            -7.274613             0.064001
C             2.800000            -7.274613             0.005595
H             0.850000            -8.227241             0.071825
C             3.500000            -8.487049             0.069049
C             4.900000            -8.487049             0.006169
H             2.950000            -9.439677             0.062505
C             5.600000            -9.699485             0.078280
C             7.000000            -9.699485             0.045036
H             5.050000           -10.652112             0.015813
C             7.700000           -10.911920             0.092403
C             9.100000           -10.911920             0.095171
H             7.150000           -11.864548             0.038619
H             9.650000           -11.864548             0.087050
