84
isomero_38_29
C             0.700000             1.212436             0.061409
C            -0.700000             1.212436             0.060837
C            -1.400000             0.000000             0.089616
C            -0.700000            -1.212436             0.096997
C             0.700000            -1.212436             0.057457
C             1.400000            -0.000000             0.033991
H             1.250000             2.165064             0.087973
H            -1.250000             2.165064             0.095677
C             2.800000             0.000000             0.074350
C             1.400000            -2.424871             0.091967
C             2.800000            -2.424871             0.067388
C             3.500000            -1.212436             0.093753
H             3.350000             0.952628             0.013933
C             4.900000            -1.212436             0.051838
C             3.500000            -3.637307             0.048304
C             4.900000            -3.637307             0.045875
C             5.600000            -2.424871             0.074373
H             5.450000            -0.259808             0.049849
C             7.000000            -2.424871             0.015567
C             5.600000            -4.849742             0.067126
C             7.000000            -4.849742             0.080810
C             7.700000            -3.637307             0.064173
H             7.550000            -1.472243             0.044048
C             9.100000            -3.637307             0.025951
C             7.700000            -6.062178             0.058700
B             9.100000            -6.062178             0.031204
N             9.800000            -4.849742             0.082344
H             9.650000            -2.684679             0.032919
C            11.200000            -4.849742             0.055917
C             9.800000            -7.274613             0.090673
C            11.200000            -7.274613             0.005752
C            11.900000            -6.062178             0.067938
H            11.750000            -3.897114             0.070797
C            13.300000            -6.062178             0.094893
C            11.900000            -8.487049             0.095724
C            13.300000            -8.487049             0.081581
C            14.000000            -7.274613             0.086389
H            13.850000            -5.109550             0.016756
H            13.850000            -9.439677             0.032705
H            15.100000            -7.274613             0.077305
C            -2.800000             0.000000             0.003456
C            -3.500000            -1.212436             0.003844
C            -2.800000            -2.424871             0.099621
C            -1.400000            -2.424871             0.022015
H            -3.350000             0.952628             0.066661
C            -0.700000            -3.637307             0.045550
C             0.700000            -3.637307             0.027278
C             1.400000            -4.849742             0.029322
C             2.800000            -4.849742             0.093274
C             3.500000            -6.062178             0.086571
C             4.900000            -6.062178             0.009784
C             5.600000            -7.274613             0.013381
C             7.000000            -7.274613             0.067327
C             7.700000            -8.487049             0.041512
C             9.100000            -8.487049             0.051018
C             9.800000            -9.699485             0.000478
C            11.200000            -9.699485             0.078286
H            11.750000           -10.652112             0.001234
C            -4.900000            -1.212436             0.068121
C            -5.600000            -2.424871             0.089837
C            -4.900000            -3.637307             0.096183
C            -3.500000            -3.637307             0.023413
H            -5.450000            -0.259808             0.038269
H            -6.700000            -2.424871             0.057751
H            -5.450000            -4.589935             0.081645
C            -2.800000            -4.849742             0.087931
C            -1.400000            -4.849742             0.016297
H            -3.350000            -5.802370             0.054647
C            -0.700000            -6.062178             0.003098
C             0.700000            -6.062178             0.059538
H            -1.250000            -7.014806             0.088993
C             1.400000            -7.274613             0.048090
C             2.800000            -7.274613             0.026191
H             0.850000            -8.227241             0.018236
C             3.500000            -8.487049             0.086782
C             4.900000            -8.487049             0.091630
H             2.950000            -9.439677             0.021662
C             5.600000            -9.699485             0.094462
C             7.000000            -9.699485             0.053436
H             5.050000           -10.652112             0.083928
C             7.700000           -10.911920             0.096747
C             9.100000           -10.911920             0.098850
H             7.150000           -11.864548             0.036844
H             9.650000           -11.864548             0.052490
