84
isomero_38_39
C             0.700000             1.212436             0.065191
C            -0.700000             1.212436             0.015322
C            -1.400000             0.000000             0.008779
C            -0.700000            -1.212436             0.024710
C             0.700000            -1.212436             0.013794
C             1.400000            -0.000000             0.071760
H             1.250000             2.165064             0.001369
H            -1.250000             2.165064             0.061835
C             2.800000             0.000000             0.097393
C             1.400000            -2.424871             0.058631
C             2.800000            -2.424871             0.050484
C             3.500000            -1.212436             0.015382
H             3.350000             0.952628             0.066314
C             4.900000            -1.212436             0.070918
C             3.500000            -3.637307             0.058253
C             4.900000            -3.637307             0.059962
C             5.600000            -2.424871             0.002313
H             5.450000            -0.259808             0.074932
C             7.000000            -2.424871             0.066786
C             5.600000            -4.849742             0.000865
C             7.000000            -4.849742             0.064910
C             7.700000            -3.637307             0.014380
H             7.550000            -1.472243             0.065220
C             9.100000            -3.637307             0.033185
N             7.700000            -6.062178             0.064557
B             9.100000            -6.062178             0.061074
C             9.800000            -4.849742             0.080943
H             9.650000            -2.684679             0.088543
C            11.200000            -4.849742             0.072447
C             9.800000            -7.274613             0.055507
C            11.200000            -7.274613             0.069471
C            11.900000            -6.062178             0.054931
H            11.750000            -3.897114             0.040822
C            13.300000            -6.062178             0.016529
C            11.900000            -8.487049             0.022888
C            13.300000            -8.487049             0.012374
C            14.000000            -7.274613             0.019959
H            13.850000            -5.109550             0.006224
H            13.850000            -9.439677             0.089080
H            15.100000            -7.274613             0.073059
C            -2.800000             0.000000             0.012199
C            -3.500000            -1.212436             0.019379
C            -2.800000            -2.424871             0.039656
C            -1.400000            -2.424871             0.072601
H            -3.350000             0.952628             0.037400
C            -0.700000            -3.637307             0.028528
C             0.700000            -3.637307             0.010571
C             1.400000            -4.849742             0.079673
C             2.800000            -4.849742             0.051178
C             3.500000            -6.062178             0.060353
C             4.900000            -6.062178             0.004771
C             5.600000            -7.274613             0.042048
C             7.000000            -7.274613             0.083915
C             7.700000            -8.487049             0.039390
C             9.100000            -8.487049             0.041093
C             9.800000            -9.699485             0.028077
C            11.200000            -9.699485             0.023808
H            11.750000           -10.652112             0.088342
C            -4.900000            -1.212436             0.003194
C            -5.600000            -2.424871             0.072938
C            -4.900000            -3.637307             0.028853
C            -3.500000            -3.637307             0.060584
H            -5.450000            -0.259808             0.077226
H            -6.700000            -2.424871             0.094862
H            -5.450000            -4.589935             0.025522
C            -2.800000            -4.849742             0.041486
C            -1.400000            -4.849742             0.002502
H            -3.350000            -5.802370             0.046906
C            -0.700000            -6.062178             0.063012
C             0.700000            -6.062178             0.064233
H            -1.250000            -7.014806             0.050316
C             1.400000            -7.274613             0.040438
C             2.800000            -7.274613             0.056616
H             0.850000            -8.227241             0.057639
C             3.500000            -8.487049             0.075452
C             4.900000            -8.487049             0.012114
H             2.950000            -9.439677             0.067305
C             5.600000            -9.699485             0.084776
C             7.000000            -9.699485             0.028212
H             5.050000           -10.652112             0.076498
C             7.700000           -10.911920             0.047719
C             9.100000           -10.911920             0.016739
H             7.150000           -11.864548             0.076710
H             9.650000           -11.864548             0.096077
