84
isomero_18_11
C             0.700000             1.212436             0.073889
C            -0.700000             1.212436             0.096110
C            -1.400000             0.000000             0.083457
C            -0.700000            -1.212436             0.040109
C             0.700000            -1.212436             0.050524
C             1.400000            -0.000000             0.064638
H             1.250000             2.165064             0.077397
H            -1.250000             2.165064             0.091380
C             2.800000             0.000000             0.070311
C             1.400000            -2.424871             0.062357
C             2.800000            -2.424871             0.096811
C             3.500000            -1.212436             0.007883
H             3.350000             0.952628             0.019524
C             4.900000            -1.212436             0.075259
C             3.500000            -3.637307             0.053057
C             4.900000            -3.637307             0.090220
C             5.600000            -2.424871             0.048456
H             5.450000            -0.259808             0.097667
C             7.000000            -2.424871             0.022644
C             5.600000            -4.849742             0.071573
C             7.000000            -4.849742             0.061337
C             7.700000            -3.637307             0.051432
H             7.550000            -1.472243             0.067043
C             9.100000            -3.637307             0.092002
C             7.700000            -6.062178             0.016562
C             9.100000            -6.062178             0.023295
C             9.800000            -4.849742             0.078423
H             9.650000            -2.684679             0.027111
C            11.200000            -4.849742             0.071964
C             9.800000            -7.274613             0.058192
C            11.200000            -7.274613             0.089366
C            11.900000            -6.062178             0.061306
H            11.750000            -3.897114             0.083404
C            13.300000            -6.062178             0.076472
C            11.900000            -8.487049             0.028989
C            13.300000            -8.487049             0.076804
C            14.000000            -7.274613             0.020109
H            13.850000            -5.109550             0.086711
H            13.850000            -9.439677             0.060229
H            15.100000            -7.274613             0.043315
C            -2.800000             0.000000             0.034452
N            -3.500000            -1.212436             0.005342
B            -2.800000            -2.424871             0.031862
C            -1.400000            -2.424871             0.030332
H            -3.350000             0.952628             0.077182
C            -0.700000            -3.637307             0.096888
C             0.700000            -3.637307             0.010057
C             1.400000            -4.849742             0.095403
C             2.800000            -4.849742             0.087813
C             3.500000            -6.062178             0.056165
C             4.900000            -6.062178             0.014619
C             5.600000            -7.274613             0.072318
C             7.000000            -7.274613             0.009576
C             7.700000            -8.487049             0.052432
C             9.100000            -8.487049             0.001828
C             9.800000            -9.699485             0.012233
C            11.200000            -9.699485             0.009842
H            11.750000           -10.652112             0.014458
C            -4.900000            -1.212436             0.032232
C            -5.600000            -2.424871             0.080139
C            -4.900000            -3.637307             0.097418
C            -3.500000            -3.637307             0.036737
H            -5.450000            -0.259808             0.091102
H            -6.700000            -2.424871             0.064072
H            -5.450000            -4.589935             0.008611
C            -2.800000            -4.849742             0.052334
C            -1.400000            -4.849742             0.012800
H            -3.350000            -5.802370             0.004805
C            -0.700000            -6.062178             0.022207
C             0.700000            -6.062178             0.021477
H            -1.250000            -7.014806             0.057145
C             1.400000            -7.274613             0.043193
C             2.800000            -7.274613             0.021911
H             0.850000            -8.227241             0.048548
C             3.500000            -8.487049             0.028242
C             4.900000            -8.487049             0.048005
H             2.950000            -9.439677             0.068417
C             5.600000            -9.699485             0.019803
C             7.000000            -9.699485             0.015929
H             5.050000           -10.652112             0.087504
C             7.700000           -10.911920             0.064749
C             9.100000           -10.911920             0.057748
H             7.150000           -11.864548             0.057469
H             9.650000           -11.864548             0.037814
