84
isomero_7_8
C             0.700000             1.212436             0.029602
C            -0.700000             1.212436             0.067737
C            -1.400000             0.000000             0.040021
C            -0.700000            -1.212436             0.054654
C             0.700000            -1.212436             0.064585
C             1.400000            -0.000000             0.068893
H             1.250000             2.165064             0.065571
H            -1.250000             2.165064             0.020932
C             2.800000             0.000000             0.095455
C             1.400000            -2.424871             0.047836
C             2.800000            -2.424871             0.046153
N             3.500000            -1.212436             0.048116
H             3.350000             0.952628             0.014979
B             4.900000            -1.212436             0.011623
C             3.500000            -3.637307             0.068357
C             4.900000            -3.637307             0.085552
C             5.600000            -2.424871             0.014465
H             5.450000            -0.259808             0.044321
C             7.000000            -2.424871             0.001745
C             5.600000            -4.849742             0.009154
C             7.000000            -4.849742             0.068016
C             7.700000            -3.637307             0.094260
H             7.550000            -1.472243             0.046385
C             9.100000            -3.637307             0.095874
C             7.700000            -6.062178             0.049868
C             9.100000            -6.062178             0.078357
C             9.800000            -4.849742             0.066822
H             9.650000            -2.684679             0.037500
C            11.200000            -4.849742             0.006780
C             9.800000            -7.274613             0.064704
C            11.200000            -7.274613             0.044339
C            11.900000            -6.062178             0.015011
H            11.750000            -3.897114             0.007244
C            13.300000            -6.062178             0.076826
C            11.900000            -8.487049             0.017779
C            13.300000            -8.487049             0.021528
C            14.000000            -7.274613             0.057317
H            13.850000            -5.109550             0.063646
H            13.850000            -9.439677             0.021965
H            15.100000            -7.274613             0.044657
C            -2.800000             0.000000             0.070918
C            -3.500000            -1.212436             0.001823
C            -2.800000            -2.424871             0.055747
C            -1.400000            -2.424871             0.054833
H            -3.350000             0.952628             0.000973
C            -0.700000            -3.637307             0.045227
C             0.700000            -3.637307             0.033611
C             1.400000            -4.849742             0.034743
C             2.800000            -4.849742             0.043625
C             3.500000            -6.062178             0.038562
C             4.900000            -6.062178             0.062755
C             5.600000            -7.274613             0.070689
C             7.000000            -7.274613             0.023985
C             7.700000            -8.487049             0.069335
C             9.100000            -8.487049             0.019507
C             9.800000            -9.699485             0.043782
C            11.200000            -9.699485             0.065431
H            11.750000           -10.652112             0.019529
C            -4.900000            -1.212436             0.077454
C            -5.600000            -2.424871             0.006477
C            -4.900000            -3.637307             0.003050
C            -3.500000            -3.637307             0.099817
H            -5.450000            -0.259808             0.069379
H            -6.700000            -2.424871             0.094837
H            -5.450000            -4.589935             0.088791
C            -2.800000            -4.849742             0.096237
C            -1.400000            -4.849742             0.010066
H            -3.350000            -5.802370             0.090060
C            -0.700000            -6.062178             0.052996
C             0.700000            -6.062178             0.081921
H            -1.250000            -7.014806             0.075070
C             1.400000            -7.274613             0.088818
C             2.800000            -7.274613             0.081342
H             0.850000            -8.227241             0.022276
C             3.500000            -8.487049             0.015171
C             4.900000            -8.487049             0.076314
H             2.950000            -9.439677             0.096761
C             5.600000            -9.699485             0.090520
C             7.000000            -9.699485             0.019467
H             5.050000           -10.652112             0.015159
C             7.700000           -10.911920             0.046843
C             9.100000           -10.911920             0.090966
H             7.150000           -11.864548             0.019016
H             9.650000           -11.864548             0.066882
