84
isomero_20_21
C             0.700000             1.212436             0.031059
C            -0.700000             1.212436             0.052095
C            -1.400000             0.000000             0.058165
C            -0.700000            -1.212436             0.064099
C             0.700000            -1.212436             0.055266
C             1.400000            -0.000000             0.002380
H             1.250000             2.165064             0.043717
H            -1.250000             2.165064             0.022086
C             2.800000             0.000000             0.069310
C             1.400000            -2.424871             0.064675
C             2.800000            -2.424871             0.041931
C             3.500000            -1.212436             0.088877
H             3.350000             0.952628             0.057475
C             4.900000            -1.212436             0.024945
C             3.500000            -3.637307             0.043872
C             4.900000            -3.637307             0.040073
C             5.600000            -2.424871             0.049423
H             5.450000            -0.259808             0.040806
C             7.000000            -2.424871             0.086129
C             5.600000            -4.849742             0.090881
C             7.000000            -4.849742             0.067614
N             7.700000            -3.637307             0.038347
H             7.550000            -1.472243             0.087170
B             9.100000            -3.637307             0.017792
C             7.700000            -6.062178             0.010550
C             9.100000            -6.062178             0.014538
C             9.800000            -4.849742             0.032827
H             9.650000            -2.684679             0.081616
C            11.200000            -4.849742             0.066046
C             9.800000            -7.274613             0.023711
C            11.200000            -7.274613             0.070481
C            11.900000            -6.062178             0.076623
H            11.750000            -3.897114             0.053744
C            13.300000            -6.062178             0.015695
C            11.900000            -8.487049             0.023720
C            13.300000            -8.487049             0.019299
C            14.000000            -7.274613             0.077898
H            13.850000            -5.109550             0.097027
H            13.850000            -9.439677             0.035863
H            15.100000            -7.274613             0.087374
C            -2.800000             0.000000             0.015809
C            -3.500000            -1.212436             0.081507
C            -2.800000            -2.424871             0.028852
C            -1.400000            -2.424871             0.005179
H            -3.350000             0.952628             0.018838
C            -0.700000            -3.637307             0.067557
C             0.700000            -3.637307             0.067391
C             1.400000            -4.849742             0.058212
C             2.800000            -4.849742             0.013260
C             3.500000            -6.062178             0.069078
C             4.900000            -6.062178             0.001894
C             5.600000            -7.274613             0.011177
C             7.000000            -7.274613             0.095050
C             7.700000            -8.487049             0.025556
C             9.100000            -8.487049             0.095336
C             9.800000            -9.699485             0.050747
C            11.200000            -9.699485             0.043836
H            11.750000           -10.652112             0.024652
C            -4.900000            -1.212436             0.086752
C            -5.600000            -2.424871             0.038934
C            -4.900000            -3.637307             0.009077
C            -3.500000            -3.637307             0.033138
H            -5.450000            -0.259808             0.077629
H            -6.700000            -2.424871             0.082783
H            -5.450000            -4.589935             0.005598
C            -2.800000            -4.849742             0.030575
C            -1.400000            -4.849742             0.082150
H            -3.350000            -5.802370             0.052025
C            -0.700000            -6.062178             0.073594
C             0.700000            -6.062178             0.041448
H            -1.250000            -7.014806             0.023343
C             1.400000            -7.274613             0.014508
C             2.800000            -7.274613             0.027843
H             0.850000            -8.227241             0.028136
C             3.500000            -8.487049             0.041835
C             4.900000            -8.487049             0.003171
H             2.950000            -9.439677             0.042689
C             5.600000            -9.699485             0.005345
C             7.000000            -9.699485             0.093759
H             5.050000           -10.652112             0.094361
C             7.700000           -10.911920             0.057152
C             9.100000           -10.911920             0.077053
H             7.150000           -11.864548             0.029090
H             9.650000           -11.864548             0.009332
