84
isomero_15_16
C             0.700000             1.212436             0.060341
C            -0.700000             1.212436             0.037017
C            -1.400000             0.000000             0.053298
C            -0.700000            -1.212436             0.031175
C             0.700000            -1.212436             0.018831
C             1.400000            -0.000000             0.085937
H             1.250000             2.165064             0.045193
H            -1.250000             2.165064             0.055996
C             2.800000             0.000000             0.068878
N             1.400000            -2.424871             0.078740
B             2.800000            -2.424871             0.079950
C             3.500000            -1.212436             0.093408
H             3.350000             0.952628             0.070076
C             4.900000            -1.212436             0.072417
C             3.500000            -3.637307             0.019453
C             4.900000            -3.637307             0.088631
C             5.600000            -2.424871             0.046939
H             5.450000            -0.259808             0.090741
C             7.000000            -2.424871             0.054131
C             5.600000            -4.849742             0.014914
C             7.000000            -4.849742             0.086780
C             7.700000            -3.637307             0.074740
H             7.550000            -1.472243             0.077020
C             9.100000            -3.637307             0.024033
C             7.700000            -6.062178             0.013643
C             9.100000            -6.062178             0.078800
C             9.800000            -4.849742             0.088754
H             9.650000            -2.684679             0.035338
C            11.200000            -4.849742             0.053800
C             9.800000            -7.274613             0.040176
C            11.200000            -7.274613             0.009785
C            11.900000            -6.062178             0.079182
H            11.750000            -3.897114             0.024838
C            13.300000            -6.062178             0.046197
C            11.900000            -8.487049             0.028542
C            13.300000            -8.487049             0.010028
C            14.000000            -7.274613             0.058592
H            13.850000            -5.109550             0.000547
H            13.850000            -9.439677             0.023744
H            15.100000            -7.274613             0.099337
C            -2.800000             0.000000             0.074720
C            -3.500000            -1.212436             0.008907
C            -2.800000            -2.424871             0.006907
C            -1.400000            -2.424871             0.079339
H            -3.350000             0.952628             0.000448
C            -0.700000            -3.637307             0.021501
C             0.700000            -3.637307             0.027353
C             1.400000            -4.849742             0.070361
C             2.800000            -4.849742             0.080610
C             3.500000            -6.062178             0.065963
C             4.900000            -6.062178             0.046942
C             5.600000            -7.274613             0.076332
C             7.000000            -7.274613             0.058963
C             7.700000            -8.487049             0.074250
C             9.100000            -8.487049             0.061570
C             9.800000            -9.699485             0.028515
C            11.200000            -9.699485             0.012266
H            11.750000           -10.652112             0.047881
C            -4.900000            -1.212436             0.050338
C            -5.600000            -2.424871             0.022725
C            -4.900000            -3.637307             0.057975
C            -3.500000            -3.637307             0.026099
H            -5.450000            -0.259808             0.005228
H            -6.700000            -2.424871             0.028090
H            -5.450000            -4.589935             0.076597
C            -2.800000            -4.849742             0.036678
C            -1.400000            -4.849742             0.017199
H            -3.350000            -5.802370             0.049641
C            -0.700000            -6.062178             0.063772
C             0.700000            -6.062178             0.033861
H            -1.250000            -7.014806             0.099742
C             1.400000            -7.274613             0.088354
C             2.800000            -7.274613             0.094550
H             0.850000            -8.227241             0.095139
C             3.500000            -8.487049             0.002312
C             4.900000            -8.487049             0.046226
H             2.950000            -9.439677             0.070877
C             5.600000            -9.699485             0.088246
C             7.000000            -9.699485             0.012763
H             5.050000           -10.652112             0.033279
C             7.700000           -10.911920             0.028517
C             9.100000           -10.911920             0.022867
H             7.150000           -11.864548             0.055553
H             9.650000           -11.864548             0.046982
