84
isomero_29_20
C             0.700000             1.212436             0.021650
C            -0.700000             1.212436             0.031801
C            -1.400000             0.000000             0.016455
C            -0.700000            -1.212436             0.019241
C             0.700000            -1.212436             0.085604
C             1.400000            -0.000000             0.017387
H             1.250000             2.165064             0.021393
H            -1.250000             2.165064             0.075308
C             2.800000             0.000000             0.085033
C             1.400000            -2.424871             0.032248
C             2.800000            -2.424871             0.044051
C             3.500000            -1.212436             0.079652
H             3.350000             0.952628             0.093339
C             4.900000            -1.212436             0.043946
C             3.500000            -3.637307             0.015948
C             4.900000            -3.637307             0.079946
C             5.600000            -2.424871             0.023006
H             5.450000            -0.259808             0.002997
C             7.000000            -2.424871             0.073960
C             5.600000            -4.849742             0.032729
C             7.000000            -4.849742             0.009206
C             7.700000            -3.637307             0.023221
H             7.550000            -1.472243             0.005778
N             9.100000            -3.637307             0.079944
C             7.700000            -6.062178             0.044801
C             9.100000            -6.062178             0.006662
B             9.800000            -4.849742             0.097529
H             9.650000            -2.684679             0.030504
C            11.200000            -4.849742             0.020843
C             9.800000            -7.274613             0.061562
C            11.200000            -7.274613             0.079374
C            11.900000            -6.062178             0.067219
H            11.750000            -3.897114             0.021520
C            13.300000            -6.062178             0.067803
C            11.900000            -8.487049             0.010419
C            13.300000            -8.487049             0.069424
C            14.000000            -7.274613             0.081085
H            13.850000            -5.109550             0.096573
H            13.850000            -9.439677             0.082915
H            15.100000            -7.274613             0.088113
C            -2.800000             0.000000             0.057040
C            -3.500000            -1.212436             0.091928
C            -2.800000            -2.424871             0.009740
C            -1.400000            -2.424871             0.009204
H            -3.350000             0.952628             0.070216
C            -0.700000            -3.637307             0.012772
C             0.700000            -3.637307             0.063361
C             1.400000            -4.849742             0.097815
C             2.800000            -4.849742             0.031706
C             3.500000            -6.062178             0.057031
C             4.900000            -6.062178             0.030287
C             5.600000            -7.274613             0.033677
C             7.000000            -7.274613             0.063053
C             7.700000            -8.487049             0.086503
C             9.100000            -8.487049             0.022216
C             9.800000            -9.699485             0.038053
C            11.200000            -9.699485             0.021630
H            11.750000           -10.652112             0.044230
C            -4.900000            -1.212436             0.049409
C            -5.600000            -2.424871             0.076365
C            -4.900000            -3.637307             0.015344
C            -3.500000            -3.637307             0.088830
H            -5.450000            -0.259808             0.096199
H            -6.700000            -2.424871             0.094715
H            -5.450000            -4.589935             0.039493
C            -2.800000            -4.849742             0.078071
C            -1.400000            -4.849742             0.083884
H            -3.350000            -5.802370             0.076245
C            -0.700000            -6.062178             0.038921
C             0.700000            -6.062178             0.034495
H            -1.250000            -7.014806             0.097728
C             1.400000            -7.274613             0.080362
C             2.800000            -7.274613             0.007043
H             0.850000            -8.227241             0.066498
C             3.500000            -8.487049             0.079455
C             4.900000            -8.487049             0.074503
H             2.950000            -9.439677             0.050057
C             5.600000            -9.699485             0.076005
C             7.000000            -9.699485             0.056527
H             5.050000           -10.652112             0.077393
C             7.700000           -10.911920             0.062555
C             9.100000           -10.911920             0.080430
H             7.150000           -11.864548             0.054553
H             9.650000           -11.864548             0.024920
