84
isomero_21_20
C             0.700000             1.212436             0.044726
C            -0.700000             1.212436             0.018500
C            -1.400000             0.000000             0.011542
C            -0.700000            -1.212436             0.013551
C             0.700000            -1.212436             0.094936
C             1.400000            -0.000000             0.054791
H             1.250000             2.165064             0.009003
H            -1.250000             2.165064             0.082652
C             2.800000             0.000000             0.047604
C             1.400000            -2.424871             0.090889
C             2.800000            -2.424871             0.019499
C             3.500000            -1.212436             0.043513
H             3.350000             0.952628             0.068835
C             4.900000            -1.212436             0.088280
C             3.500000            -3.637307             0.046571
C             4.900000            -3.637307             0.008174
C             5.600000            -2.424871             0.068066
H             5.450000            -0.259808             0.009111
C             7.000000            -2.424871             0.005619
C             5.600000            -4.849742             0.098776
C             7.000000            -4.849742             0.023381
B             7.700000            -3.637307             0.081229
H             7.550000            -1.472243             0.014171
N             9.100000            -3.637307             0.078805
C             7.700000            -6.062178             0.053724
C             9.100000            -6.062178             0.023560
C             9.800000            -4.849742             0.040917
H             9.650000            -2.684679             0.016343
C            11.200000            -4.849742             0.044108
C             9.800000            -7.274613             0.042683
C            11.200000            -7.274613             0.031411
C            11.900000            -6.062178             0.094188
H            11.750000            -3.897114             0.024618
C            13.300000            -6.062178             0.099813
C            11.900000            -8.487049             0.005623
C            13.300000            -8.487049             0.086361
C            14.000000            -7.274613             0.058616
H            13.850000            -5.109550             0.058677
H            13.850000            -9.439677             0.039379
H            15.100000            -7.274613             0.048546
C            -2.800000             0.000000             0.049682
C            -3.500000            -1.212436             0.080123
C            -2.800000            -2.424871             0.042897
C            -1.400000            -2.424871             0.060603
H            -3.350000             0.952628             0.063263
C            -0.700000            -3.637307             0.052569
C             0.700000            -3.637307             0.040406
C             1.400000            -4.849742             0.068958
C             2.800000            -4.849742             0.042523
C             3.500000            -6.062178             0.023870
C             4.900000            -6.062178             0.077444
C             5.600000            -7.274613             0.019994
C             7.000000            -7.274613             0.033339
C             7.700000            -8.487049             0.034607
C             9.100000            -8.487049             0.043928
C             9.800000            -9.699485             0.084049
C            11.200000            -9.699485             0.079813
H            11.750000           -10.652112             0.066577
C            -4.900000            -1.212436             0.025335
C            -5.600000            -2.424871             0.034926
C            -4.900000            -3.637307             0.045521
C            -3.500000            -3.637307             0.070672
H            -5.450000            -0.259808             0.049906
H            -6.700000            -2.424871             0.034841
H            -5.450000            -4.589935             0.080647
C            -2.800000            -4.849742             0.017312
C            -1.400000            -4.849742             0.021491
H            -3.350000            -5.802370             0.084538
C            -0.700000            -6.062178             0.043323
C             0.700000            -6.062178             0.094004
H            -1.250000            -7.014806             0.078239
C             1.400000            -7.274613             0.082808
C             2.800000            -7.274613             0.027529
H             0.850000            -8.227241             0.038815
C             3.500000            -8.487049             0.093360
C             4.900000            -8.487049             0.044594
H             2.950000            -9.439677             0.026317
C             5.600000            -9.699485             0.073710
C             7.000000            -9.699485             0.055551
H             5.050000           -10.652112             0.050772
C             7.700000           -10.911920             0.034667
C             9.100000           -10.911920             0.000451
H             7.150000           -11.864548             0.028270
H             9.650000           -11.864548             0.084526
