84
isomero_11_12
C             0.700000             1.212436             0.022902
C            -0.700000             1.212436             0.071204
C            -1.400000             0.000000             0.043218
C            -0.700000            -1.212436             0.041595
C             0.700000            -1.212436             0.093127
C             1.400000            -0.000000             0.014712
H             1.250000             2.165064             0.001984
H            -1.250000             2.165064             0.042402
C             2.800000             0.000000             0.094680
C             1.400000            -2.424871             0.073077
C             2.800000            -2.424871             0.031191
C             3.500000            -1.212436             0.015508
H             3.350000             0.952628             0.098911
C             4.900000            -1.212436             0.085290
C             3.500000            -3.637307             0.067360
C             4.900000            -3.637307             0.026952
C             5.600000            -2.424871             0.090255
H             5.450000            -0.259808             0.026571
C             7.000000            -2.424871             0.085365
C             5.600000            -4.849742             0.041913
C             7.000000            -4.849742             0.008569
C             7.700000            -3.637307             0.093546
H             7.550000            -1.472243             0.082357
C             9.100000            -3.637307             0.093245
C             7.700000            -6.062178             0.063703
C             9.100000            -6.062178             0.098652
C             9.800000            -4.849742             0.062925
H             9.650000            -2.684679             0.042909
C            11.200000            -4.849742             0.027702
C             9.800000            -7.274613             0.082933
C            11.200000            -7.274613             0.092946
C            11.900000            -6.062178             0.095458
H            11.750000            -3.897114             0.016692
C            13.300000            -6.062178             0.018037
C            11.900000            -8.487049             0.094771
C            13.300000            -8.487049             0.063207
C            14.000000            -7.274613             0.054644
H            13.850000            -5.109550             0.064661
H            13.850000            -9.439677             0.099024
H            15.100000            -7.274613             0.081309
C            -2.800000             0.000000             0.091336
B            -3.500000            -1.212436             0.055912
C            -2.800000            -2.424871             0.031286
C            -1.400000            -2.424871             0.044396
H            -3.350000             0.952628             0.026596
C            -0.700000            -3.637307             0.014272
C             0.700000            -3.637307             0.076705
C             1.400000            -4.849742             0.060901
C             2.800000            -4.849742             0.021777
C             3.500000            -6.062178             0.046935
C             4.900000            -6.062178             0.079468
C             5.600000            -7.274613             0.058607
C             7.000000            -7.274613             0.091357
C             7.700000            -8.487049             0.075201
C             9.100000            -8.487049             0.080933
C             9.800000            -9.699485             0.072701
C            11.200000            -9.699485             0.084538
H            11.750000           -10.652112             0.061589
N            -4.900000            -1.212436             0.061352
C            -5.600000            -2.424871             0.000968
C            -4.900000            -3.637307             0.056315
C            -3.500000            -3.637307             0.085408
H            -5.450000            -0.259808             0.045189
H            -6.700000            -2.424871             0.033831
H            -5.450000            -4.589935             0.008517
C            -2.800000            -4.849742             0.089488
C            -1.400000            -4.849742             0.044471
H            -3.350000            -5.802370             0.089358
C            -0.700000            -6.062178             0.052718
C             0.700000            -6.062178             0.045301
H            -1.250000            -7.014806             0.001414
C             1.400000            -7.274613             0.026783
C             2.800000            -7.274613             0.079866
H             0.850000            -8.227241             0.020537
C             3.500000            -8.487049             0.064282
C             4.900000            -8.487049             0.069367
H             2.950000            -9.439677             0.009707
C             5.600000            -9.699485             0.073935
C             7.000000            -9.699485             0.097611
H             5.050000           -10.652112             0.075740
C             7.700000           -10.911920             0.020654
C             9.100000           -10.911920             0.017501
H             7.150000           -11.864548             0.091082
H             9.650000           -11.864548             0.026960
