84
isomero_10_5
C             0.700000             1.212436             0.054836
C            -0.700000             1.212436             0.045146
N            -1.400000             0.000000             0.093526
B            -0.700000            -1.212436             0.008341
C             0.700000            -1.212436             0.036804
C             1.400000            -0.000000             0.003313
H             1.250000             2.165064             0.004600
H            -1.250000             2.165064             0.064059
C             2.800000             0.000000             0.051019
C             1.400000            -2.424871             0.056180
C             2.800000            -2.424871             0.028145
C             3.500000            -1.212436             0.067873
H             3.350000             0.952628             0.062686
C             4.900000            -1.212436             0.070895
C             3.500000            -3.637307             0.061537
C             4.900000            -3.637307             0.044957
C             5.600000            -2.424871             0.072749
H             5.450000            -0.259808             0.098481
C             7.000000            -2.424871             0.053448
C             5.600000            -4.849742             0.077988
C             7.000000            -4.849742             0.099153
C             7.700000            -3.637307             0.063659
H             7.550000            -1.472243             0.027327
C             9.100000            -3.637307             0.060308
C             7.700000            -6.062178             0.063604
C             9.100000            -6.062178             0.091109
C             9.800000            -4.849742             0.061564
H             9.650000            -2.684679             0.094366
C            11.200000            -4.849742             0.025573
C             9.800000            -7.274613             0.019821
C            11.200000            -7.274613             0.044387
C            11.900000            -6.062178             0.087717
H            11.750000            -3.897114             0.034839
C            13.300000            -6.062178             0.010752
C            11.900000            -8.487049             0.076474
C            13.300000            -8.487049             0.089628
C            14.000000            -7.274613             0.018864
H            13.850000            -5.109550             0.067352
H            13.850000            -9.439677             0.051589
H            15.100000            -7.274613             0.086196
C            -2.800000             0.000000             0.029815
C            -3.500000            -1.212436             0.030330
C            -2.800000            -2.424871             0.022110
C            -1.400000            -2.424871             0.013983
H            -3.350000             0.952628             0.095901
C            -0.700000            -3.637307             0.068068
C             0.700000            -3.637307             0.080479
C             1.400000            -4.849742             0.053621
C             2.800000            -4.849742             0.082146
C             3.500000            -6.062178             0.026243
C             4.900000            -6.062178             0.069571
C             5.600000            -7.274613             0.085103
C             7.000000            -7.274613             0.008715
C             7.700000            -8.487049             0.096579
C             9.100000            -8.487049             0.070092
C             9.800000            -9.699485             0.007554
C            11.200000            -9.699485             0.094284
H            11.750000           -10.652112             0.096246
C            -4.900000            -1.212436             0.038875
C            -5.600000            -2.424871             0.057694
C            -4.900000            -3.637307             0.081716
C            -3.500000            -3.637307             0.007654
H            -5.450000            -0.259808             0.086531
H            -6.700000            -2.424871             0.018137
H            -5.450000            -4.589935             0.083467
C            -2.800000            -4.849742             0.084104
C            -1.400000            -4.849742             0.050862
H            -3.350000            -5.802370             0.052002
C            -0.700000            -6.062178             0.036690
C             0.700000            -6.062178             0.092360
H            -1.250000            -7.014806             0.070023
C             1.400000            -7.274613             0.099073
C             2.800000            -7.274613             0.096897
H             0.850000            -8.227241             0.009273
C             3.500000            -8.487049             0.037060
C             4.900000            -8.487049             0.053016
H             2.950000            -9.439677             0.008059
C             5.600000            -9.699485             0.070431
C             7.000000            -9.699485             0.034697
H             5.050000           -10.652112             0.011229
C             7.700000           -10.911920             0.094190
C             9.100000           -10.911920             0.020735
H             7.150000           -11.864548             0.000980
H             9.650000           -11.864548             0.086856
