84
isomero_23_15
C             0.700000             1.212436             0.002933
C            -0.700000             1.212436             0.038725
C            -1.400000             0.000000             0.094387
C            -0.700000            -1.212436             0.065975
C             0.700000            -1.212436             0.093133
C             1.400000            -0.000000             0.088592
H             1.250000             2.165064             0.070838
H            -1.250000             2.165064             0.044249
C             2.800000             0.000000             0.081363
C             1.400000            -2.424871             0.085526
N             2.800000            -2.424871             0.018599
C             3.500000            -1.212436             0.035321
H             3.350000             0.952628             0.056611
C             4.900000            -1.212436             0.018481
B             3.500000            -3.637307             0.046559
C             4.900000            -3.637307             0.018327
C             5.600000            -2.424871             0.059142
H             5.450000            -0.259808             0.078100
C             7.000000            -2.424871             0.065547
C             5.600000            -4.849742             0.006005
C             7.000000            -4.849742             0.068746
C             7.700000            -3.637307             0.066186
H             7.550000            -1.472243             0.005328
C             9.100000            -3.637307             0.076332
C             7.700000            -6.062178             0.003465
C             9.100000            -6.062178             0.089774
C             9.800000            -4.849742             0.070723
H             9.650000            -2.684679             0.008946
C            11.200000            -4.849742             0.033382
C             9.800000            -7.274613             0.013836
C            11.200000            -7.274613             0.023923
C            11.900000            -6.062178             0.097108
H            11.750000            -3.897114             0.097104
C            13.300000            -6.062178             0.080695
C            11.900000            -8.487049             0.092307
C            13.300000            -8.487049             0.068225
C            14.000000            -7.274613             0.064400
H            13.850000            -5.109550             0.049675
H            13.850000            -9.439677             0.099187
H            15.100000            -7.274613             0.072407
C            -2.800000             0.000000             0.037990
C            -3.500000            -1.212436             0.007956
C            -2.800000            -2.424871             0.073259
C            -1.400000            -2.424871             0.051373
H            -3.350000             0.952628             0.052235
C            -0.700000            -3.637307             0.081436
C             0.700000            -3.637307             0.083462
C             1.400000            -4.849742             0.094685
C             2.800000            -4.849742             0.048655
C             3.500000            -6.062178             0.018024
C             4.900000            -6.062178             0.017859
C             5.600000            -7.274613             0.059770
C             7.000000            -7.274613             0.097473
C             7.700000            -8.487049             0.092753
C             9.100000            -8.487049             0.055392
C             9.800000            -9.699485             0.028896
C            11.200000            -9.699485             0.022554
H            11.750000           -10.652112             0.076670
C            -4.900000            -1.212436             0.021821
C            -5.600000            -2.424871             0.044495
C            -4.900000            -3.637307             0.035120
C            -3.500000            -3.637307             0.042099
H            -5.450000            -0.259808             0.080664
H            -6.700000            -2.424871             0.003061
H            -5.450000            -4.589935             0.023313
C            -2.800000            -4.849742             0.090799
C            -1.400000            -4.849742             0.084105
H            -3.350000            -5.802370             0.083154
C            -0.700000            -6.062178             0.015553
C             0.700000            -6.062178             0.030556
H            -1.250000            -7.014806             0.073720
C             1.400000            -7.274613             0.060123
C             2.800000            -7.274613             0.059134
H             0.850000            -8.227241             0.091181
C             3.500000            -8.487049             0.050445
C             4.900000            -8.487049             0.079239
H             2.950000            -9.439677             0.080470
C             5.600000            -9.699485             0.065102
C             7.000000            -9.699485             0.059904
H             5.050000           -10.652112             0.029798
C             7.700000           -10.911920             0.096576
C             9.100000           -10.911920             0.092238
H             7.150000           -11.864548             0.065029
H             9.650000           -11.864548             0.017584
