84
isomero_29_28
C             0.700000             1.212436             0.089514
C            -0.700000             1.212436             0.085509
C            -1.400000             0.000000             0.058881
C            -0.700000            -1.212436             0.005261
C             0.700000            -1.212436             0.049634
C             1.400000            -0.000000             0.075509
H             1.250000             2.165064             0.089744
H            -1.250000             2.165064             0.008477
C             2.800000             0.000000             0.050754
C             1.400000            -2.424871             0.001693
C             2.800000            -2.424871             0.019853
C             3.500000            -1.212436             0.037425
H             3.350000             0.952628             0.072652
C             4.900000            -1.212436             0.063986
C             3.500000            -3.637307             0.098087
C             4.900000            -3.637307             0.038846
C             5.600000            -2.424871             0.012310
H             5.450000            -0.259808             0.087101
C             7.000000            -2.424871             0.079221
C             5.600000            -4.849742             0.085344
C             7.000000            -4.849742             0.082738
C             7.700000            -3.637307             0.098382
H             7.550000            -1.472243             0.032434
C             9.100000            -3.637307             0.024649
C             7.700000            -6.062178             0.018936
C             9.100000            -6.062178             0.002143
B             9.800000            -4.849742             0.026612
H             9.650000            -2.684679             0.026597
N            11.200000            -4.849742             0.091626
C             9.800000            -7.274613             0.048405
C            11.200000            -7.274613             0.099857
C            11.900000            -6.062178             0.002766
H            11.750000            -3.897114             0.088869
C            13.300000            -6.062178             0.047090
C            11.900000            -8.487049             0.015533
C            13.300000            -8.487049             0.065081
C            14.000000            -7.274613             0.035100
H            13.850000            -5.109550             0.010113
H            13.850000            -9.439677             0.035604
H            15.100000            -7.274613             0.066296
C            -2.800000             0.000000             0.014876
C            -3.500000            -1.212436             0.073018
C            -2.800000            -2.424871             0.049648
C            -1.400000            -2.424871             0.046973
H            -3.350000             0.952628             0.057139
C            -0.700000            -3.637307             0.064132
C             0.700000            -3.637307             0.026650
C             1.400000            -4.849742             0.049536
C             2.800000            -4.849742             0.086129
C             3.500000            -6.062178             0.069309
C             4.900000            -6.062178             0.051672
C             5.600000            -7.274613             0.075923
C             7.000000            -7.274613             0.009839
C             7.700000            -8.487049             0.046587
C             9.100000            -8.487049             0.074286
C             9.800000            -9.699485             0.089866
C            11.200000            -9.699485             0.010094
H            11.750000           -10.652112             0.030285
C            -4.900000            -1.212436             0.012542
C            -5.600000            -2.424871             0.049969
C            -4.900000            -3.637307             0.076162
C            -3.500000            -3.637307             0.066656
H            -5.450000            -0.259808             0.062136
H            -6.700000            -2.424871             0.018957
H            -5.450000            -4.589935             0.042368
C            -2.800000            -4.849742             0.095469
C            -1.400000            -4.849742             0.013507
H            -3.350000            -5.802370             0.055961
C            -0.700000            -6.062178             0.004766
C             0.700000            -6.062178             0.019554
H            -1.250000            -7.014806             0.050859
C             1.400000            -7.274613             0.042398
C             2.800000            -7.274613             0.092911
H             0.850000            -8.227241             0.060735
C             3.500000            -8.487049             0.038062
C             4.900000            -8.487049             0.005876
H             2.950000            -9.439677             0.054321
C             5.600000            -9.699485             0.052637
C             7.000000            -9.699485             0.089655
H             5.050000           -10.652112             0.073500
C             7.700000           -10.911920             0.059720
C             9.100000           -10.911920             0.085557
H             7.150000           -11.864548             0.010132
H             9.650000           -11.864548             0.055620
