26
isomero_9_5
C             0.700000             1.212436             0.026100
C            -0.700000             1.212436             0.066532
N            -1.400000             0.000000             0.096426
B            -0.700000            -1.212436             0.067115
C             0.700000            -1.212436             0.029917
C             1.400000            -0.000000             0.053113
H             1.250000             2.165064             0.000146
H            -1.250000             2.165064             0.088379
C             2.800000             0.000000             0.040438
C             1.400000            -2.424871             0.030121
C             2.800000            -2.424871             0.095058
C             3.500000            -1.212436             0.046065
H             3.350000             0.952628             0.028765
H             3.350000            -3.377499             0.008463
H             4.600000            -1.212436             0.058218
C            -2.800000             0.000000             0.015307
C            -3.500000            -1.212436             0.007309
C            -2.800000            -2.424871             0.058056
C            -1.400000            -2.424871             0.028701
H            -3.350000             0.952628             0.036192
H            -4.600000            -1.212436             0.072482
H            -3.350000            -3.377499             0.085831
C            -0.700000            -3.637307             0.034792
C             0.700000            -3.637307             0.096175
H            -1.250000            -4.589935             0.095357
H             1.250000            -4.589935             0.020604
