26
isomero_5_6
C             0.700000             1.212436             0.099038
C            -0.700000             1.212436             0.003369
B            -1.400000             0.000000             0.042425
C            -0.700000            -1.212436             0.048998
C             0.700000            -1.212436             0.058350
C             1.400000            -0.000000             0.008327
H             1.250000             2.165064             0.066015
H            -1.250000             2.165064             0.005231
C             2.800000             0.000000             0.055683
C             1.400000            -2.424871             0.071203
C             2.800000            -2.424871             0.048791
C             3.500000            -1.212436             0.061760
H             3.350000             0.952628             0.021378
H             3.350000            -3.377499             0.064566
H             4.600000            -1.212436             0.038064
N            -2.800000             0.000000             0.010371
C            -3.500000            -1.212436             0.037751
C            -2.800000            -2.424871             0.026286
C            -1.400000            -2.424871             0.024129
H            -3.350000             0.952628             0.062292
H            -4.600000            -1.212436             0.052293
H            -3.350000            -3.377499             0.041324
C            -0.700000            -3.637307             0.021779
C             0.700000            -3.637307             0.085855
H            -1.250000            -4.589935             0.086101
H             1.250000            -4.589935             0.028394
