26
isomero_6_10
C             0.700000             1.212436             0.028559
C            -0.700000             1.212436             0.079682
C            -1.400000             0.000000             0.014277
C            -0.700000            -1.212436             0.050455
C             0.700000            -1.212436             0.061069
C             1.400000            -0.000000             0.070380
H             1.250000             2.165064             0.038334
H            -1.250000             2.165064             0.072868
C             2.800000             0.000000             0.088728
C             1.400000            -2.424871             0.005585
C             2.800000            -2.424871             0.013822
C             3.500000            -1.212436             0.086306
H             3.350000             0.952628             0.042175
H             3.350000            -3.377499             0.041131
H             4.600000            -1.212436             0.095914
B            -2.800000             0.000000             0.075025
N            -3.500000            -1.212436             0.098100
C            -2.800000            -2.424871             0.023352
C            -1.400000            -2.424871             0.009623
H            -3.350000             0.952628             0.038458
H            -4.600000            -1.212436             0.050027
H            -3.350000            -3.377499             0.057026
C            -0.700000            -3.637307             0.097663
C             0.700000            -3.637307             0.049286
H            -1.250000            -4.589935             0.040088
H             1.250000            -4.589935             0.099499
