26
isomero_5_9
C             0.700000             1.212436             0.061539
C            -0.700000             1.212436             0.077949
B            -1.400000             0.000000             0.095485
N            -0.700000            -1.212436             0.091960
C             0.700000            -1.212436             0.038482
C             1.400000            -0.000000             0.016264
H             1.250000             2.165064             0.079675
H            -1.250000             2.165064             0.011382
C             2.800000             0.000000             0.015882
C             1.400000            -2.424871             0.035583
C             2.800000            -2.424871             0.084776
C             3.500000            -1.212436             0.058278
H             3.350000             0.952628             0.058618
H             3.350000            -3.377499             0.092584
H             4.600000            -1.212436             0.057508
C            -2.800000             0.000000             0.000998
C            -3.500000            -1.212436             0.080938
C            -2.800000            -2.424871             0.060881
C            -1.400000            -2.424871             0.047991
H            -3.350000             0.952628             0.026844
H            -4.600000            -1.212436             0.025810
H            -3.350000            -3.377499             0.048101
C            -0.700000            -3.637307             0.022734
C             0.700000            -3.637307             0.004860
H            -1.250000            -4.589935             0.016924
H             1.250000            -4.589935             0.025845
