26
isomero_5_2
C             0.700000             1.212436             0.012262
N            -0.700000             1.212436             0.012379
B            -1.400000             0.000000             0.028446
C            -0.700000            -1.212436             0.073573
C             0.700000            -1.212436             0.041131
C             1.400000            -0.000000             0.082898
H             1.250000             2.165064             0.093511
H            -1.250000             2.165064             0.039907
C             2.800000             0.000000             0.005221
C             1.400000            -2.424871             0.057119
C             2.800000            -2.424871             0.074767
C             3.500000            -1.212436             0.032024
H             3.350000             0.952628             0.049293
H             3.350000            -3.377499             0.022165
H             4.600000            -1.212436             0.093927
C            -2.800000             0.000000             0.048231
C            -3.500000            -1.212436             0.054000
C            -2.800000            -2.424871             0.022106
C            -1.400000            -2.424871             0.009595
H            -3.350000             0.952628             0.006017
H            -4.600000            -1.212436             0.081951
H            -3.350000            -3.377499             0.077148
C            -0.700000            -3.637307             0.019570
C             0.700000            -3.637307             0.089512
H            -1.250000            -4.589935             0.068430
H             1.250000            -4.589935             0.065685
