26
isomero_10_6
C             0.700000             1.212436             0.065569
C            -0.700000             1.212436             0.054645
C            -1.400000             0.000000             0.025133
C            -0.700000            -1.212436             0.004016
C             0.700000            -1.212436             0.023338
C             1.400000            -0.000000             0.036111
H             1.250000             2.165064             0.063346
H            -1.250000             2.165064             0.098610
C             2.800000             0.000000             0.020716
C             1.400000            -2.424871             0.075708
C             2.800000            -2.424871             0.088633
C             3.500000            -1.212436             0.047223
H             3.350000             0.952628             0.015891
H             3.350000            -3.377499             0.081092
H             4.600000            -1.212436             0.047651
N            -2.800000             0.000000             0.011629
B            -3.500000            -1.212436             0.087572
C            -2.800000            -2.424871             0.063519
C            -1.400000            -2.424871             0.009728
H            -3.350000             0.952628             0.090844
H            -4.600000            -1.212436             0.003502
H            -3.350000            -3.377499             0.003975
C            -0.700000            -3.637307             0.098857
C             0.700000            -3.637307             0.068618
H            -1.250000            -4.589935             0.037669
H             1.250000            -4.589935             0.050432
