54
isomero_8_7
C             0.700000             1.212436             0.095316
C            -0.700000             1.212436             0.000438
C            -1.400000             0.000000             0.060143
C            -0.700000            -1.212436             0.078558
C             0.700000            -1.212436             0.063851
C             1.400000            -0.000000             0.011701
H             1.250000             2.165064             0.071051
H            -1.250000             2.165064             0.009775
C             2.800000             0.000000             0.058477
C             1.400000            -2.424871             0.084756
C             2.800000            -2.424871             0.023073
B             3.500000            -1.212436             0.019599
H             3.350000             0.952628             0.003783
N             4.900000            -1.212436             0.082755
C             3.500000            -3.637307             0.002826
C             4.900000            -3.637307             0.036724
C             5.600000            -2.424871             0.017481
H             5.450000            -0.259808             0.050407
C             7.000000            -2.424871             0.049599
C             5.600000            -4.849742             0.086488
C             7.000000            -4.849742             0.057114
C             7.700000            -3.637307             0.017102
H             7.550000            -1.472243             0.090835
H             7.550000            -5.802370             0.066364
H             8.800000            -3.637307             0.050269
C            -2.800000             0.000000             0.082208
C            -3.500000            -1.212436             0.028770
C            -2.800000            -2.424871             0.088097
C            -1.400000            -2.424871             0.053144
H            -3.350000             0.952628             0.009259
C            -0.700000            -3.637307             0.048354
C             0.700000            -3.637307             0.032180
C             1.400000            -4.849742             0.054308
C             2.800000            -4.849742             0.095670
C             3.500000            -6.062178             0.036752
C             4.900000            -6.062178             0.002646
H             5.450000            -7.014806             0.073951
C            -4.900000            -1.212436             0.032488
C            -5.600000            -2.424871             0.066529
C            -4.900000            -3.637307             0.049785
C            -3.500000            -3.637307             0.085769
H            -5.450000            -0.259808             0.074863
H            -6.700000            -2.424871             0.039792
H            -5.450000            -4.589935             0.051411
C            -2.800000            -4.849742             0.058376
C            -1.400000            -4.849742             0.050824
H            -3.350000            -5.802370             0.073387
C            -0.700000            -6.062178             0.072859
C             0.700000            -6.062178             0.019413
H            -1.250000            -7.014806             0.045489
C             1.400000            -7.274613             0.051862
C             2.800000            -7.274613             0.014909
H             0.850000            -8.227241             0.078194
H             3.350000            -8.227241             0.016543
