54
isomero_4_3
C             0.700000             1.212436             0.054916
C            -0.700000             1.212436             0.006977
C            -1.400000             0.000000             0.086045
C            -0.700000            -1.212436             0.020838
C             0.700000            -1.212436             0.023863
B             1.400000            -0.000000             0.038059
H             1.250000             2.165064             0.028737
H            -1.250000             2.165064             0.075052
N             2.800000             0.000000             0.031894
C             1.400000            -2.424871             0.010737
C             2.800000            -2.424871             0.080614
C             3.500000            -1.212436             0.025206
H             3.350000             0.952628             0.050390
C             4.900000            -1.212436             0.003985
C             3.500000            -3.637307             0.062419
C             4.900000            -3.637307             0.038744
C             5.600000            -2.424871             0.030827
H             5.450000            -0.259808             0.033205
C             7.000000            -2.424871             0.093159
C             5.600000            -4.849742             0.046799
C             7.000000            -4.849742             0.000007
C             7.700000            -3.637307             0.072578
H             7.550000            -1.472243             0.039948
H             7.550000            -5.802370             0.002292
H             8.800000            -3.637307             0.063774
C            -2.800000             0.000000             0.043935
C            -3.500000            -1.212436             0.059177
C            -2.800000            -2.424871             0.061798
C            -1.400000            -2.424871             0.045410
H            -3.350000             0.952628             0.004909
C            -0.700000            -3.637307             0.071969
C             0.700000            -3.637307             0.074009
C             1.400000            -4.849742             0.040480
C             2.800000            -4.849742             0.005141
C             3.500000            -6.062178             0.094800
C             4.900000            -6.062178             0.087739
H             5.450000            -7.014806             0.082765
C            -4.900000            -1.212436             0.044864
C            -5.600000            -2.424871             0.088447
C            -4.900000            -3.637307             0.085372
C            -3.500000            -3.637307             0.064774
H            -5.450000            -0.259808             0.050678
H            -6.700000            -2.424871             0.007602
H            -5.450000            -4.589935             0.036241
C            -2.800000            -4.849742             0.023109
C            -1.400000            -4.849742             0.086018
H            -3.350000            -5.802370             0.063439
C            -0.700000            -6.062178             0.073146
C             0.700000            -6.062178             0.015636
H            -1.250000            -7.014806             0.094965
C             1.400000            -7.274613             0.040042
C             2.800000            -7.274613             0.061139
H             0.850000            -8.227241             0.079849
H             3.350000            -8.227241             0.068637
