54
isomero_14_21
C             0.700000             1.212436             0.021768
C            -0.700000             1.212436             0.000331
C            -1.400000             0.000000             0.019163
C            -0.700000            -1.212436             0.045024
C             0.700000            -1.212436             0.068183
C             1.400000            -0.000000             0.046807
H             1.250000             2.165064             0.012838
H            -1.250000             2.165064             0.080368
C             2.800000             0.000000             0.007597
C             1.400000            -2.424871             0.012308
C             2.800000            -2.424871             0.087106
C             3.500000            -1.212436             0.068544
H             3.350000             0.952628             0.051191
C             4.900000            -1.212436             0.061650
C             3.500000            -3.637307             0.083255
N             4.900000            -3.637307             0.001057
B             5.600000            -2.424871             0.052201
H             5.450000            -0.259808             0.038386
C             7.000000            -2.424871             0.005876
C             5.600000            -4.849742             0.071430
C             7.000000            -4.849742             0.077812
C             7.700000            -3.637307             0.071665
H             7.550000            -1.472243             0.011985
H             7.550000            -5.802370             0.032363
H             8.800000            -3.637307             0.086618
C            -2.800000             0.000000             0.067517
C            -3.500000            -1.212436             0.023932
C            -2.800000            -2.424871             0.002847
C            -1.400000            -2.424871             0.026386
H            -3.350000             0.952628             0.074856
C            -0.700000            -3.637307             0.043082
C             0.700000            -3.637307             0.095018
C             1.400000            -4.849742             0.008448
C             2.800000            -4.849742             0.001643
C             3.500000            -6.062178             0.061461
C             4.900000            -6.062178             0.021352
H             5.450000            -7.014806             0.075366
C            -4.900000            -1.212436             0.071205
C            -5.600000            -2.424871             0.040653
C            -4.900000            -3.637307             0.024293
C            -3.500000            -3.637307             0.052931
H            -5.450000            -0.259808             0.079237
H            -6.700000            -2.424871             0.077154
H            -5.450000            -4.589935             0.037295
C            -2.800000            -4.849742             0.043600
C            -1.400000            -4.849742             0.098669
H            -3.350000            -5.802370             0.089619
C            -0.700000            -6.062178             0.073547
C             0.700000            -6.062178             0.022071
H            -1.250000            -7.014806             0.006914
C             1.400000            -7.274613             0.008859
C             2.800000            -7.274613             0.026243
H             0.850000            -8.227241             0.015146
H             3.350000            -8.227241             0.036414
