54
isomero_1_4
B             0.700000             1.212436             0.052560
C            -0.700000             1.212436             0.082844
C            -1.400000             0.000000             0.010688
C            -0.700000            -1.212436             0.061714
C             0.700000            -1.212436             0.056683
N             1.400000            -0.000000             0.026094
H             1.250000             2.165064             0.000231
H            -1.250000             2.165064             0.028726
C             2.800000             0.000000             0.082127
C             1.400000            -2.424871             0.089512
C             2.800000            -2.424871             0.099581
C             3.500000            -1.212436             0.000844
H             3.350000             0.952628             0.073284
C             4.900000            -1.212436             0.008462
C             3.500000            -3.637307             0.063335
C             4.900000            -3.637307             0.080509
C             5.600000            -2.424871             0.082996
H             5.450000            -0.259808             0.056722
C             7.000000            -2.424871             0.026004
C             5.600000            -4.849742             0.078453
C             7.000000            -4.849742             0.016921
C             7.700000            -3.637307             0.027426
H             7.550000            -1.472243             0.000490
H             7.550000            -5.802370             0.039756
H             8.800000            -3.637307             0.002655
C            -2.800000             0.000000             0.085470
C            -3.500000            -1.212436             0.020489
C            -2.800000            -2.424871             0.086035
C            -1.400000            -2.424871             0.005612
H            -3.350000             0.952628             0.022351
C            -0.700000            -3.637307             0.004528
C             0.700000            -3.637307             0.075099
C             1.400000            -4.849742             0.069806
C             2.800000            -4.849742             0.091879
C             3.500000            -6.062178             0.090892
C             4.900000            -6.062178             0.080552
H             5.450000            -7.014806             0.099968
C            -4.900000            -1.212436             0.080077
C            -5.600000            -2.424871             0.032292
C            -4.900000            -3.637307             0.002514
C            -3.500000            -3.637307             0.073282
H            -5.450000            -0.259808             0.047279
H            -6.700000            -2.424871             0.039259
H            -5.450000            -4.589935             0.086001
C            -2.800000            -4.849742             0.005746
C            -1.400000            -4.849742             0.038455
H            -3.350000            -5.802370             0.014184
C            -0.700000            -6.062178             0.004568
C             0.700000            -6.062178             0.069799
H            -1.250000            -7.014806             0.091351
C             1.400000            -7.274613             0.038355
C             2.800000            -7.274613             0.024311
H             0.850000            -8.227241             0.090710
H             3.350000            -8.227241             0.070202
