54
isomero_16_9
C             0.700000             1.212436             0.086730
C            -0.700000             1.212436             0.067572
C            -1.400000             0.000000             0.001698
C            -0.700000            -1.212436             0.051744
N             0.700000            -1.212436             0.051230
C             1.400000            -0.000000             0.039604
H             1.250000             2.165064             0.092071
H            -1.250000             2.165064             0.099176
C             2.800000             0.000000             0.055470
B             1.400000            -2.424871             0.057080
C             2.800000            -2.424871             0.023213
C             3.500000            -1.212436             0.079821
H             3.350000             0.952628             0.023784
C             4.900000            -1.212436             0.057331
C             3.500000            -3.637307             0.061943
C             4.900000            -3.637307             0.045373
C             5.600000            -2.424871             0.075441
H             5.450000            -0.259808             0.056587
C             7.000000            -2.424871             0.077787
C             5.600000            -4.849742             0.073419
C             7.000000            -4.849742             0.096541
C             7.700000            -3.637307             0.076300
H             7.550000            -1.472243             0.056686
H             7.550000            -5.802370             0.059969
H             8.800000            -3.637307             0.059128
C            -2.800000             0.000000             0.096165
C            -3.500000            -1.212436             0.044162
C            -2.800000            -2.424871             0.069248
C            -1.400000            -2.424871             0.023586
H            -3.350000             0.952628             0.077061
C            -0.700000            -3.637307             0.016000
C             0.700000            -3.637307             0.007865
C             1.400000            -4.849742             0.031066
C             2.800000            -4.849742             0.032425
C             3.500000            -6.062178             0.017690
C             4.900000            -6.062178             0.024601
H             5.450000            -7.014806             0.099184
C            -4.900000            -1.212436             0.061130
C            -5.600000            -2.424871             0.048300
C            -4.900000            -3.637307             0.024427
C            -3.500000            -3.637307             0.097391
H            -5.450000            -0.259808             0.071542
H            -6.700000            -2.424871             0.069839
H            -5.450000            -4.589935             0.017484
C            -2.800000            -4.849742             0.047039
C            -1.400000            -4.849742             0.080509
H            -3.350000            -5.802370             0.010971
C            -0.700000            -6.062178             0.079501
C             0.700000            -6.062178             0.086803
H            -1.250000            -7.014806             0.009735
C             1.400000            -7.274613             0.006584
C             2.800000            -7.274613             0.006028
H             0.850000            -8.227241             0.045503
H             3.350000            -8.227241             0.087942
