54
isomero_8_3
C             0.700000             1.212436             0.052657
C            -0.700000             1.212436             0.050115
C            -1.400000             0.000000             0.081033
C            -0.700000            -1.212436             0.080484
C             0.700000            -1.212436             0.011782
C             1.400000            -0.000000             0.061835
H             1.250000             2.165064             0.077273
H            -1.250000             2.165064             0.028484
N             2.800000             0.000000             0.026912
C             1.400000            -2.424871             0.046612
C             2.800000            -2.424871             0.037125
B             3.500000            -1.212436             0.047924
H             3.350000             0.952628             0.043821
C             4.900000            -1.212436             0.025523
C             3.500000            -3.637307             0.014114
C             4.900000            -3.637307             0.026617
C             5.600000            -2.424871             0.034848
H             5.450000            -0.259808             0.025252
C             7.000000            -2.424871             0.001772
C             5.600000            -4.849742             0.045075
C             7.000000            -4.849742             0.090458
C             7.700000            -3.637307             0.065706
H             7.550000            -1.472243             0.014343
H             7.550000            -5.802370             0.025850
H             8.800000            -3.637307             0.079126
C            -2.800000             0.000000             0.072738
C            -3.500000            -1.212436             0.082312
C            -2.800000            -2.424871             0.093630
C            -1.400000            -2.424871             0.019117
H            -3.350000             0.952628             0.052694
C            -0.700000            -3.637307             0.028061
C             0.700000            -3.637307             0.040839
C             1.400000            -4.849742             0.023985
C             2.800000            -4.849742             0.035756
C             3.500000            -6.062178             0.016432
C             4.900000            -6.062178             0.000253
H             5.450000            -7.014806             0.040666
C            -4.900000            -1.212436             0.027962
C            -5.600000            -2.424871             0.017728
C            -4.900000            -3.637307             0.058566
C            -3.500000            -3.637307             0.072152
H            -5.450000            -0.259808             0.072126
H            -6.700000            -2.424871             0.050859
H            -5.450000            -4.589935             0.032593
C            -2.800000            -4.849742             0.045484
C            -1.400000            -4.849742             0.029688
H            -3.350000            -5.802370             0.068303
C            -0.700000            -6.062178             0.092473
C             0.700000            -6.062178             0.029175
H            -1.250000            -7.014806             0.047599
C             1.400000            -7.274613             0.039154
C             2.800000            -7.274613             0.031890
H             0.850000            -8.227241             0.040019
H             3.350000            -8.227241             0.087759
