54
isomero_6_5
C             0.700000             1.212436             0.099115
C            -0.700000             1.212436             0.084928
N            -1.400000             0.000000             0.005999
C            -0.700000            -1.212436             0.076673
C             0.700000            -1.212436             0.072491
C             1.400000            -0.000000             0.075468
H             1.250000             2.165064             0.020143
H            -1.250000             2.165064             0.032384
C             2.800000             0.000000             0.059708
C             1.400000            -2.424871             0.097711
C             2.800000            -2.424871             0.045143
C             3.500000            -1.212436             0.049631
H             3.350000             0.952628             0.097166
C             4.900000            -1.212436             0.076300
C             3.500000            -3.637307             0.097977
C             4.900000            -3.637307             0.020283
C             5.600000            -2.424871             0.003167
H             5.450000            -0.259808             0.015815
C             7.000000            -2.424871             0.071970
C             5.600000            -4.849742             0.077728
C             7.000000            -4.849742             0.064496
C             7.700000            -3.637307             0.033806
H             7.550000            -1.472243             0.065465
H             7.550000            -5.802370             0.004566
H             8.800000            -3.637307             0.086748
B            -2.800000             0.000000             0.010296
C            -3.500000            -1.212436             0.094697
C            -2.800000            -2.424871             0.037950
C            -1.400000            -2.424871             0.013452
H            -3.350000             0.952628             0.031288
C            -0.700000            -3.637307             0.089868
C             0.700000            -3.637307             0.078079
C             1.400000            -4.849742             0.019304
C             2.800000            -4.849742             0.017394
C             3.500000            -6.062178             0.089332
C             4.900000            -6.062178             0.077076
H             5.450000            -7.014806             0.079212
C            -4.900000            -1.212436             0.021356
C            -5.600000            -2.424871             0.019337
C            -4.900000            -3.637307             0.064674
C            -3.500000            -3.637307             0.011129
H            -5.450000            -0.259808             0.050591
H            -6.700000            -2.424871             0.068492
H            -5.450000            -4.589935             0.015703
C            -2.800000            -4.849742             0.037337
C            -1.400000            -4.849742             0.080837
H            -3.350000            -5.802370             0.090932
C            -0.700000            -6.062178             0.016069
C             0.700000            -6.062178             0.073795
H            -1.250000            -7.014806             0.055570
C             1.400000            -7.274613             0.018786
C             2.800000            -7.274613             0.069001
H             0.850000            -8.227241             0.029982
H             3.350000            -8.227241             0.063227
