54
isomero_18_17
C             0.700000             1.212436             0.000565
C            -0.700000             1.212436             0.065616
C            -1.400000             0.000000             0.075266
C            -0.700000            -1.212436             0.006761
C             0.700000            -1.212436             0.033927
C             1.400000            -0.000000             0.049739
H             1.250000             2.165064             0.031182
H            -1.250000             2.165064             0.067202
C             2.800000             0.000000             0.080839
C             1.400000            -2.424871             0.067691
C             2.800000            -2.424871             0.093072
C             3.500000            -1.212436             0.063892
H             3.350000             0.952628             0.057291
C             4.900000            -1.212436             0.099068
C             3.500000            -3.637307             0.005455
C             4.900000            -3.637307             0.008506
C             5.600000            -2.424871             0.096125
H             5.450000            -0.259808             0.040543
C             7.000000            -2.424871             0.068528
C             5.600000            -4.849742             0.040604
C             7.000000            -4.849742             0.099499
C             7.700000            -3.637307             0.083789
H             7.550000            -1.472243             0.024599
H             7.550000            -5.802370             0.041648
H             8.800000            -3.637307             0.036998
C            -2.800000             0.000000             0.079180
C            -3.500000            -1.212436             0.003211
B            -2.800000            -2.424871             0.079648
N            -1.400000            -2.424871             0.003406
H            -3.350000             0.952628             0.001847
C            -0.700000            -3.637307             0.044745
C             0.700000            -3.637307             0.083752
C             1.400000            -4.849742             0.079600
C             2.800000            -4.849742             0.093687
C             3.500000            -6.062178             0.020131
C             4.900000            -6.062178             0.086268
H             5.450000            -7.014806             0.025580
C            -4.900000            -1.212436             0.005968
C            -5.600000            -2.424871             0.096868
C            -4.900000            -3.637307             0.006551
C            -3.500000            -3.637307             0.022954
H            -5.450000            -0.259808             0.003308
H            -6.700000            -2.424871             0.012782
H            -5.450000            -4.589935             0.068003
C            -2.800000            -4.849742             0.002830
C            -1.400000            -4.849742             0.085190
H            -3.350000            -5.802370             0.028222
C            -0.700000            -6.062178             0.042199
C             0.700000            -6.062178             0.065331
H            -1.250000            -7.014806             0.092160
C             1.400000            -7.274613             0.029235
C             2.800000            -7.274613             0.096680
H             0.850000            -8.227241             0.077941
H             3.350000            -8.227241             0.008631
