54
isomero_17_18
C             0.700000             1.212436             0.034059
C            -0.700000             1.212436             0.059629
C            -1.400000             0.000000             0.061249
C            -0.700000            -1.212436             0.006575
C             0.700000            -1.212436             0.017657
C             1.400000            -0.000000             0.017345
H             1.250000             2.165064             0.085647
H            -1.250000             2.165064             0.057954
C             2.800000             0.000000             0.020183
C             1.400000            -2.424871             0.067543
C             2.800000            -2.424871             0.009947
C             3.500000            -1.212436             0.000411
H             3.350000             0.952628             0.056170
C             4.900000            -1.212436             0.035647
C             3.500000            -3.637307             0.043198
C             4.900000            -3.637307             0.027407
C             5.600000            -2.424871             0.050581
H             5.450000            -0.259808             0.026296
C             7.000000            -2.424871             0.000582
C             5.600000            -4.849742             0.092501
C             7.000000            -4.849742             0.049449
C             7.700000            -3.637307             0.022106
H             7.550000            -1.472243             0.088505
H             7.550000            -5.802370             0.012033
H             8.800000            -3.637307             0.053199
C            -2.800000             0.000000             0.017033
C            -3.500000            -1.212436             0.096559
N            -2.800000            -2.424871             0.094513
B            -1.400000            -2.424871             0.049166
H            -3.350000             0.952628             0.016726
C            -0.700000            -3.637307             0.071089
C             0.700000            -3.637307             0.075677
C             1.400000            -4.849742             0.047987
C             2.800000            -4.849742             0.083651
C             3.500000            -6.062178             0.083708
C             4.900000            -6.062178             0.057033
H             5.450000            -7.014806             0.078308
C            -4.900000            -1.212436             0.047575
C            -5.600000            -2.424871             0.077766
C            -4.900000            -3.637307             0.089600
C            -3.500000            -3.637307             0.095642
H            -5.450000            -0.259808             0.013130
H            -6.700000            -2.424871             0.062641
H            -5.450000            -4.589935             0.074959
C            -2.800000            -4.849742             0.019088
C            -1.400000            -4.849742             0.044376
H            -3.350000            -5.802370             0.029200
C            -0.700000            -6.062178             0.043602
C             0.700000            -6.062178             0.067995
H            -1.250000            -7.014806             0.025300
C             1.400000            -7.274613             0.087214
C             2.800000            -7.274613             0.053620
H             0.850000            -8.227241             0.091239
H             3.350000            -8.227241             0.046591
