54
isomero_11_6
C             0.700000             1.212436             0.024296
C            -0.700000             1.212436             0.018844
C            -1.400000             0.000000             0.015274
C            -0.700000            -1.212436             0.099121
C             0.700000            -1.212436             0.097472
C             1.400000            -0.000000             0.092210
H             1.250000             2.165064             0.045130
H            -1.250000             2.165064             0.020180
C             2.800000             0.000000             0.037557
C             1.400000            -2.424871             0.074317
C             2.800000            -2.424871             0.090110
C             3.500000            -1.212436             0.086045
H             3.350000             0.952628             0.097329
C             4.900000            -1.212436             0.015151
C             3.500000            -3.637307             0.012316
C             4.900000            -3.637307             0.019380
C             5.600000            -2.424871             0.025763
H             5.450000            -0.259808             0.072818
C             7.000000            -2.424871             0.022337
C             5.600000            -4.849742             0.059704
C             7.000000            -4.849742             0.017409
C             7.700000            -3.637307             0.057522
H             7.550000            -1.472243             0.045898
H             7.550000            -5.802370             0.088294
H             8.800000            -3.637307             0.000650
N            -2.800000             0.000000             0.036741
B            -3.500000            -1.212436             0.016274
C            -2.800000            -2.424871             0.007629
C            -1.400000            -2.424871             0.090115
H            -3.350000             0.952628             0.042789
C            -0.700000            -3.637307             0.054648
C             0.700000            -3.637307             0.008704
C             1.400000            -4.849742             0.058890
C             2.800000            -4.849742             0.040789
C             3.500000            -6.062178             0.061258
C             4.900000            -6.062178             0.004035
H             5.450000            -7.014806             0.004797
C            -4.900000            -1.212436             0.045742
C            -5.600000            -2.424871             0.081953
C            -4.900000            -3.637307             0.069885
C            -3.500000            -3.637307             0.054994
H            -5.450000            -0.259808             0.020093
H            -6.700000            -2.424871             0.063799
H            -5.450000            -4.589935             0.004533
C            -2.800000            -4.849742             0.072075
C            -1.400000            -4.849742             0.042430
H            -3.350000            -5.802370             0.051579
C            -0.700000            -6.062178             0.091128
C             0.700000            -6.062178             0.074963
H            -1.250000            -7.014806             0.096207
C             1.400000            -7.274613             0.075738
C             2.800000            -7.274613             0.043809
H             0.850000            -8.227241             0.045550
H             3.350000            -8.227241             0.051158
