54
isomero_9_16
C             0.700000             1.212436             0.093899
C            -0.700000             1.212436             0.067186
C            -1.400000             0.000000             0.072655
C            -0.700000            -1.212436             0.009337
B             0.700000            -1.212436             0.013547
C             1.400000            -0.000000             0.081064
H             1.250000             2.165064             0.084529
H            -1.250000             2.165064             0.010297
C             2.800000             0.000000             0.075590
N             1.400000            -2.424871             0.032117
C             2.800000            -2.424871             0.023824
C             3.500000            -1.212436             0.083960
H             3.350000             0.952628             0.042144
C             4.900000            -1.212436             0.065996
C             3.500000            -3.637307             0.003578
C             4.900000            -3.637307             0.074080
C             5.600000            -2.424871             0.099757
H             5.450000            -0.259808             0.038415
C             7.000000            -2.424871             0.052926
C             5.600000            -4.849742             0.078416
C             7.000000            -4.849742             0.016220
C             7.700000            -3.637307             0.090142
H             7.550000            -1.472243             0.031029
H             7.550000            -5.802370             0.067931
H             8.800000            -3.637307             0.045919
C            -2.800000             0.000000             0.066418
C            -3.500000            -1.212436             0.068290
C            -2.800000            -2.424871             0.024233
C            -1.400000            -2.424871             0.054373
H            -3.350000             0.952628             0.016423
C            -0.700000            -3.637307             0.090659
C             0.700000            -3.637307             0.057272
C             1.400000            -4.849742             0.084528
C             2.800000            -4.849742             0.097570
C             3.500000            -6.062178             0.079637
C             4.900000            -6.062178             0.055412
H             5.450000            -7.014806             0.087311
C            -4.900000            -1.212436             0.026755
C            -5.600000            -2.424871             0.094107
C            -4.900000            -3.637307             0.099026
C            -3.500000            -3.637307             0.091737
H            -5.450000            -0.259808             0.003720
H            -6.700000            -2.424871             0.058598
H            -5.450000            -4.589935             0.042101
C            -2.800000            -4.849742             0.004553
C            -1.400000            -4.849742             0.092521
H            -3.350000            -5.802370             0.075135
C            -0.700000            -6.062178             0.006040
C             0.700000            -6.062178             0.072213
H            -1.250000            -7.014806             0.028633
C             1.400000            -7.274613             0.096447
C             2.800000            -7.274613             0.014933
H             0.850000            -8.227241             0.059720
H             3.350000            -8.227241             0.046517
