54
isomero_15_8
C             0.700000             1.212436             0.068104
C            -0.700000             1.212436             0.010213
C            -1.400000             0.000000             0.088708
C            -0.700000            -1.212436             0.046724
C             0.700000            -1.212436             0.053488
C             1.400000            -0.000000             0.008112
H             1.250000             2.165064             0.013855
H            -1.250000             2.165064             0.003208
C             2.800000             0.000000             0.027342
C             1.400000            -2.424871             0.076062
B             2.800000            -2.424871             0.093873
N             3.500000            -1.212436             0.001532
H             3.350000             0.952628             0.006429
C             4.900000            -1.212436             0.066729
C             3.500000            -3.637307             0.056279
C             4.900000            -3.637307             0.023651
C             5.600000            -2.424871             0.089268
H             5.450000            -0.259808             0.046161
C             7.000000            -2.424871             0.060518
C             5.600000            -4.849742             0.031450
C             7.000000            -4.849742             0.013487
C             7.700000            -3.637307             0.092812
H             7.550000            -1.472243             0.095791
H             7.550000            -5.802370             0.098927
H             8.800000            -3.637307             0.022267
C            -2.800000             0.000000             0.036796
C            -3.500000            -1.212436             0.071317
C            -2.800000            -2.424871             0.002927
C            -1.400000            -2.424871             0.059640
H            -3.350000             0.952628             0.034765
C            -0.700000            -3.637307             0.044500
C             0.700000            -3.637307             0.014610
C             1.400000            -4.849742             0.017670
C             2.800000            -4.849742             0.058289
C             3.500000            -6.062178             0.041911
C             4.900000            -6.062178             0.030261
H             5.450000            -7.014806             0.045497
C            -4.900000            -1.212436             0.040389
C            -5.600000            -2.424871             0.089228
C            -4.900000            -3.637307             0.042059
C            -3.500000            -3.637307             0.074094
H            -5.450000            -0.259808             0.026747
H            -6.700000            -2.424871             0.024425
H            -5.450000            -4.589935             0.016536
C            -2.800000            -4.849742             0.060717
C            -1.400000            -4.849742             0.061507
H            -3.350000            -5.802370             0.092751
C            -0.700000            -6.062178             0.095822
C             0.700000            -6.062178             0.080181
H            -1.250000            -7.014806             0.061265
C             1.400000            -7.274613             0.088840
C             2.800000            -7.274613             0.051888
H             0.850000            -8.227241             0.046333
H             3.350000            -8.227241             0.024620
