54
isomero_15_22
C             0.700000             1.212436             0.038667
C            -0.700000             1.212436             0.006503
C            -1.400000             0.000000             0.043232
C            -0.700000            -1.212436             0.068973
C             0.700000            -1.212436             0.050656
C             1.400000            -0.000000             0.071692
H             1.250000             2.165064             0.030122
H            -1.250000             2.165064             0.070601
C             2.800000             0.000000             0.091521
C             1.400000            -2.424871             0.070580
B             2.800000            -2.424871             0.013312
C             3.500000            -1.212436             0.066547
H             3.350000             0.952628             0.037556
C             4.900000            -1.212436             0.050244
N             3.500000            -3.637307             0.039901
C             4.900000            -3.637307             0.096044
C             5.600000            -2.424871             0.011567
H             5.450000            -0.259808             0.056122
C             7.000000            -2.424871             0.046723
C             5.600000            -4.849742             0.015894
C             7.000000            -4.849742             0.052520
C             7.700000            -3.637307             0.031974
H             7.550000            -1.472243             0.078134
H             7.550000            -5.802370             0.006293
H             8.800000            -3.637307             0.062234
C            -2.800000             0.000000             0.063705
C            -3.500000            -1.212436             0.008111
C            -2.800000            -2.424871             0.084631
C            -1.400000            -2.424871             0.086194
H            -3.350000             0.952628             0.075872
C            -0.700000            -3.637307             0.093773
C             0.700000            -3.637307             0.064762
C             1.400000            -4.849742             0.099603
C             2.800000            -4.849742             0.073622
C             3.500000            -6.062178             0.005748
C             4.900000            -6.062178             0.000935
H             5.450000            -7.014806             0.083091
C            -4.900000            -1.212436             0.033501
C            -5.600000            -2.424871             0.026897
C            -4.900000            -3.637307             0.010830
C            -3.500000            -3.637307             0.018166
H            -5.450000            -0.259808             0.038380
H            -6.700000            -2.424871             0.083710
H            -5.450000            -4.589935             0.076170
C            -2.800000            -4.849742             0.098724
C            -1.400000            -4.849742             0.071100
H            -3.350000            -5.802370             0.034484
C            -0.700000            -6.062178             0.053759
C             0.700000            -6.062178             0.074418
H            -1.250000            -7.014806             0.092939
C             1.400000            -7.274613             0.012840
C             2.800000            -7.274613             0.022099
H             0.850000            -8.227241             0.032801
H             3.350000            -8.227241             0.033814
