54
isomero_4_1
N             0.700000             1.212436             0.078623
C            -0.700000             1.212436             0.074872
C            -1.400000             0.000000             0.061690
C            -0.700000            -1.212436             0.018340
C             0.700000            -1.212436             0.084359
B             1.400000            -0.000000             0.071599
H             1.250000             2.165064             0.065180
H            -1.250000             2.165064             0.061281
C             2.800000             0.000000             0.087379
C             1.400000            -2.424871             0.079268
C             2.800000            -2.424871             0.072442
C             3.500000            -1.212436             0.040915
H             3.350000             0.952628             0.099765
C             4.900000            -1.212436             0.062381
C             3.500000            -3.637307             0.035317
C             4.900000            -3.637307             0.018272
C             5.600000            -2.424871             0.032090
H             5.450000            -0.259808             0.025561
C             7.000000            -2.424871             0.094108
C             5.600000            -4.849742             0.089291
C             7.000000            -4.849742             0.098805
C             7.700000            -3.637307             0.095247
H             7.550000            -1.472243             0.087421
H             7.550000            -5.802370             0.016224
H             8.800000            -3.637307             0.014669
C            -2.800000             0.000000             0.064980
C            -3.500000            -1.212436             0.079009
C            -2.800000            -2.424871             0.007230
C            -1.400000            -2.424871             0.024452
H            -3.350000             0.952628             0.001071
C            -0.700000            -3.637307             0.023254
C             0.700000            -3.637307             0.025485
C             1.400000            -4.849742             0.091219
C             2.800000            -4.849742             0.036755
C             3.500000            -6.062178             0.003803
C             4.900000            -6.062178             0.065083
H             5.450000            -7.014806             0.081637
C            -4.900000            -1.212436             0.008375
C            -5.600000            -2.424871             0.001148
C            -4.900000            -3.637307             0.036562
C            -3.500000            -3.637307             0.041277
H            -5.450000            -0.259808             0.041602
H            -6.700000            -2.424871             0.046338
H            -5.450000            -4.589935             0.046601
C            -2.800000            -4.849742             0.054816
C            -1.400000            -4.849742             0.053269
H            -3.350000            -5.802370             0.050769
C            -0.700000            -6.062178             0.078109
C             0.700000            -6.062178             0.028997
H            -1.250000            -7.014806             0.055050
C             1.400000            -7.274613             0.057467
C             2.800000            -7.274613             0.020389
H             0.850000            -8.227241             0.055524
H             3.350000            -8.227241             0.021412
