54
isomero_16_15
C             0.700000             1.212436             0.034785
C            -0.700000             1.212436             0.043669
C            -1.400000             0.000000             0.013120
C            -0.700000            -1.212436             0.065340
C             0.700000            -1.212436             0.053749
C             1.400000            -0.000000             0.072911
H             1.250000             2.165064             0.013213
H            -1.250000             2.165064             0.089420
C             2.800000             0.000000             0.045795
B             1.400000            -2.424871             0.010063
N             2.800000            -2.424871             0.040104
C             3.500000            -1.212436             0.086828
H             3.350000             0.952628             0.095745
C             4.900000            -1.212436             0.002140
C             3.500000            -3.637307             0.094496
C             4.900000            -3.637307             0.092191
C             5.600000            -2.424871             0.061096
H             5.450000            -0.259808             0.049017
C             7.000000            -2.424871             0.044475
C             5.600000            -4.849742             0.039682
C             7.000000            -4.849742             0.015191
C             7.700000            -3.637307             0.087017
H             7.550000            -1.472243             0.048567
H             7.550000            -5.802370             0.085990
H             8.800000            -3.637307             0.072821
C            -2.800000             0.000000             0.054257
C            -3.500000            -1.212436             0.063076
C            -2.800000            -2.424871             0.026908
C            -1.400000            -2.424871             0.059181
H            -3.350000             0.952628             0.086631
C            -0.700000            -3.637307             0.092554
C             0.700000            -3.637307             0.095112
C             1.400000            -4.849742             0.006670
C             2.800000            -4.849742             0.094614
C             3.500000            -6.062178             0.049663
C             4.900000            -6.062178             0.006803
H             5.450000            -7.014806             0.015364
C            -4.900000            -1.212436             0.029607
C            -5.600000            -2.424871             0.016875
C            -4.900000            -3.637307             0.073519
C            -3.500000            -3.637307             0.087970
H            -5.450000            -0.259808             0.085142
H            -6.700000            -2.424871             0.067203
H            -5.450000            -4.589935             0.079850
C            -2.800000            -4.849742             0.010048
C            -1.400000            -4.849742             0.052267
H            -3.350000            -5.802370             0.005869
C            -0.700000            -6.062178             0.081365
C             0.700000            -6.062178             0.034569
H            -1.250000            -7.014806             0.082892
C             1.400000            -7.274613             0.072496
C             2.800000            -7.274613             0.033729
H             0.850000            -8.227241             0.021146
H             3.350000            -8.227241             0.033984
