54
isomero_18_25
C             0.700000             1.212436             0.017889
C            -0.700000             1.212436             0.019030
C            -1.400000             0.000000             0.009918
C            -0.700000            -1.212436             0.090990
C             0.700000            -1.212436             0.004842
C             1.400000            -0.000000             0.091002
H             1.250000             2.165064             0.012204
H            -1.250000             2.165064             0.035366
C             2.800000             0.000000             0.023177
C             1.400000            -2.424871             0.056072
C             2.800000            -2.424871             0.057331
C             3.500000            -1.212436             0.030277
H             3.350000             0.952628             0.077345
C             4.900000            -1.212436             0.001386
C             3.500000            -3.637307             0.026716
C             4.900000            -3.637307             0.093208
C             5.600000            -2.424871             0.083831
H             5.450000            -0.259808             0.002288
C             7.000000            -2.424871             0.096561
C             5.600000            -4.849742             0.039791
C             7.000000            -4.849742             0.051523
C             7.700000            -3.637307             0.073166
H             7.550000            -1.472243             0.055323
H             7.550000            -5.802370             0.098324
H             8.800000            -3.637307             0.053435
C            -2.800000             0.000000             0.064131
C            -3.500000            -1.212436             0.033663
B            -2.800000            -2.424871             0.098233
C            -1.400000            -2.424871             0.088603
H            -3.350000             0.952628             0.010671
C            -0.700000            -3.637307             0.062032
C             0.700000            -3.637307             0.087112
C             1.400000            -4.849742             0.058883
C             2.800000            -4.849742             0.076559
C             3.500000            -6.062178             0.074779
C             4.900000            -6.062178             0.012625
H             5.450000            -7.014806             0.063674
C            -4.900000            -1.212436             0.090357
C            -5.600000            -2.424871             0.033376
C            -4.900000            -3.637307             0.049089
N            -3.500000            -3.637307             0.022538
H            -5.450000            -0.259808             0.076401
H            -6.700000            -2.424871             0.040479
H            -5.450000            -4.589935             0.096011
C            -2.800000            -4.849742             0.061239
C            -1.400000            -4.849742             0.035358
H            -3.350000            -5.802370             0.020846
C            -0.700000            -6.062178             0.007672
C             0.700000            -6.062178             0.058529
H            -1.250000            -7.014806             0.026376
C             1.400000            -7.274613             0.058372
C             2.800000            -7.274613             0.003691
H             0.850000            -8.227241             0.089651
H             3.350000            -8.227241             0.017527
