54
isomero_3_4
C             0.700000             1.212436             0.092066
C            -0.700000             1.212436             0.005381
C            -1.400000             0.000000             0.090308
C            -0.700000            -1.212436             0.019000
C             0.700000            -1.212436             0.099262
N             1.400000            -0.000000             0.032650
H             1.250000             2.165064             0.022754
H            -1.250000             2.165064             0.094371
B             2.800000             0.000000             0.081085
C             1.400000            -2.424871             0.092444
C             2.800000            -2.424871             0.071850
C             3.500000            -1.212436             0.087926
H             3.350000             0.952628             0.086506
C             4.900000            -1.212436             0.035743
C             3.500000            -3.637307             0.013628
C             4.900000            -3.637307             0.080578
C             5.600000            -2.424871             0.068112
H             5.450000            -0.259808             0.043139
C             7.000000            -2.424871             0.094712
C             5.600000            -4.849742             0.095117
C             7.000000            -4.849742             0.003208
C             7.700000            -3.637307             0.027617
H             7.550000            -1.472243             0.006775
H             7.550000            -5.802370             0.082695
H             8.800000            -3.637307             0.039632
C            -2.800000             0.000000             0.058118
C            -3.500000            -1.212436             0.034353
C            -2.800000            -2.424871             0.097121
C            -1.400000            -2.424871             0.060341
H            -3.350000             0.952628             0.066764
C            -0.700000            -3.637307             0.086333
C             0.700000            -3.637307             0.042009
C             1.400000            -4.849742             0.007341
C             2.800000            -4.849742             0.087140
C             3.500000            -6.062178             0.069465
C             4.900000            -6.062178             0.084142
H             5.450000            -7.014806             0.067625
C            -4.900000            -1.212436             0.070140
C            -5.600000            -2.424871             0.089542
C            -4.900000            -3.637307             0.058741
C            -3.500000            -3.637307             0.032520
H            -5.450000            -0.259808             0.099485
H            -6.700000            -2.424871             0.020754
H            -5.450000            -4.589935             0.028625
C            -2.800000            -4.849742             0.083311
C            -1.400000            -4.849742             0.077025
H            -3.350000            -5.802370             0.020058
C            -0.700000            -6.062178             0.076477
C             0.700000            -6.062178             0.061592
H            -1.250000            -7.014806             0.096427
C             1.400000            -7.274613             0.050369
C             2.800000            -7.274613             0.047870
H             0.850000            -8.227241             0.058570
H             3.350000            -8.227241             0.097959
