54
isomero_5_6
C             0.700000             1.212436             0.024562
C            -0.700000             1.212436             0.088594
B            -1.400000             0.000000             0.083928
C            -0.700000            -1.212436             0.035557
C             0.700000            -1.212436             0.031525
C             1.400000            -0.000000             0.015419
H             1.250000             2.165064             0.038842
H            -1.250000             2.165064             0.030544
C             2.800000             0.000000             0.082118
C             1.400000            -2.424871             0.027988
C             2.800000            -2.424871             0.085145
C             3.500000            -1.212436             0.019529
H             3.350000             0.952628             0.035500
C             4.900000            -1.212436             0.034598
C             3.500000            -3.637307             0.058563
C             4.900000            -3.637307             0.045625
C             5.600000            -2.424871             0.003845
H             5.450000            -0.259808             0.038002
C             7.000000            -2.424871             0.054649
C             5.600000            -4.849742             0.006826
C             7.000000            -4.849742             0.021323
C             7.700000            -3.637307             0.077190
H             7.550000            -1.472243             0.063038
H             7.550000            -5.802370             0.080872
H             8.800000            -3.637307             0.002149
N            -2.800000             0.000000             0.001176
C            -3.500000            -1.212436             0.039880
C            -2.800000            -2.424871             0.020970
C            -1.400000            -2.424871             0.058791
H            -3.350000             0.952628             0.082272
C            -0.700000            -3.637307             0.074908
C             0.700000            -3.637307             0.092914
C             1.400000            -4.849742             0.052455
C             2.800000            -4.849742             0.053865
C             3.500000            -6.062178             0.066729
C             4.900000            -6.062178             0.087126
H             5.450000            -7.014806             0.018132
C            -4.900000            -1.212436             0.069911
C            -5.600000            -2.424871             0.018891
C            -4.900000            -3.637307             0.019982
C            -3.500000            -3.637307             0.077097
H            -5.450000            -0.259808             0.052990
H            -6.700000            -2.424871             0.000471
H            -5.450000            -4.589935             0.095536
C            -2.800000            -4.849742             0.087728
C            -1.400000            -4.849742             0.087231
H            -3.350000            -5.802370             0.049403
C            -0.700000            -6.062178             0.053110
C             0.700000            -6.062178             0.003226
H            -1.250000            -7.014806             0.075016
C             1.400000            -7.274613             0.075835
C             2.800000            -7.274613             0.058356
H             0.850000            -8.227241             0.037012
H             3.350000            -8.227241             0.049200
