54
isomero_20_13
C             0.700000             1.212436             0.072094
C            -0.700000             1.212436             0.011860
C            -1.400000             0.000000             0.047679
C            -0.700000            -1.212436             0.074270
C             0.700000            -1.212436             0.053355
C             1.400000            -0.000000             0.063510
H             1.250000             2.165064             0.095740
H            -1.250000             2.165064             0.024304
C             2.800000             0.000000             0.062884
C             1.400000            -2.424871             0.074615
C             2.800000            -2.424871             0.085253
C             3.500000            -1.212436             0.067086
H             3.350000             0.952628             0.096878
C             4.900000            -1.212436             0.000287
C             3.500000            -3.637307             0.007996
C             4.900000            -3.637307             0.056770
C             5.600000            -2.424871             0.033741
H             5.450000            -0.259808             0.060700
N             7.000000            -2.424871             0.012443
C             5.600000            -4.849742             0.058161
C             7.000000            -4.849742             0.086800
B             7.700000            -3.637307             0.013070
H             7.550000            -1.472243             0.036370
H             7.550000            -5.802370             0.008906
H             8.800000            -3.637307             0.018274
C            -2.800000             0.000000             0.061270
C            -3.500000            -1.212436             0.092660
C            -2.800000            -2.424871             0.073821
C            -1.400000            -2.424871             0.000525
H            -3.350000             0.952628             0.045347
C            -0.700000            -3.637307             0.055293
C             0.700000            -3.637307             0.036065
C             1.400000            -4.849742             0.002507
C             2.800000            -4.849742             0.067212
C             3.500000            -6.062178             0.067736
C             4.900000            -6.062178             0.037848
H             5.450000            -7.014806             0.043444
C            -4.900000            -1.212436             0.053295
C            -5.600000            -2.424871             0.005193
C            -4.900000            -3.637307             0.023141
C            -3.500000            -3.637307             0.042607
H            -5.450000            -0.259808             0.014278
H            -6.700000            -2.424871             0.098812
H            -5.450000            -4.589935             0.084809
C            -2.800000            -4.849742             0.092807
C            -1.400000            -4.849742             0.087247
H            -3.350000            -5.802370             0.039460
C            -0.700000            -6.062178             0.037701
C             0.700000            -6.062178             0.002574
H            -1.250000            -7.014806             0.077474
C             1.400000            -7.274613             0.035219
C             2.800000            -7.274613             0.019806
H             0.850000            -8.227241             0.068938
H             3.350000            -8.227241             0.021204
