90
isomero_11_18
C             0.700000             1.212436             0.088359
C            -0.700000             1.212436             0.084799
C            -1.400000             0.000000             0.035275
C            -0.700000            -1.212436             0.075718
C             0.700000            -1.212436             0.042431
C             1.400000            -0.000000             0.089093
H             1.250000             2.165064             0.022569
H            -1.250000             2.165064             0.057552
C             2.800000             0.000000             0.013799
C             1.400000            -2.424871             0.010049
C             2.800000            -2.424871             0.044104
C             3.500000            -1.212436             0.067999
H             3.350000             0.952628             0.041026
C             4.900000            -1.212436             0.032439
C             3.500000            -3.637307             0.097617
C             4.900000            -3.637307             0.066880
C             5.600000            -2.424871             0.025226
H             5.450000            -0.259808             0.066807
C             7.000000            -2.424871             0.020410
C             5.600000            -4.849742             0.043844
C             7.000000            -4.849742             0.084488
C             7.700000            -3.637307             0.000789
H             7.550000            -1.472243             0.059374
C             9.100000            -3.637307             0.093825
C             7.700000            -6.062178             0.028698
C             9.100000            -6.062178             0.083047
C             9.800000            -4.849742             0.013675
H             9.650000            -2.684679             0.079451
C            11.200000            -4.849742             0.016136
C             9.800000            -7.274613             0.003423
C            11.200000            -7.274613             0.025499
C            11.900000            -6.062178             0.075883
H            11.750000            -3.897114             0.091615
H            11.750000            -8.227241             0.029971
H            13.000000            -6.062178             0.002064
C            -2.800000             0.000000             0.068572
B            -3.500000            -1.212436             0.097559
N            -2.800000            -2.424871             0.025306
C            -1.400000            -2.424871             0.037511
H            -3.350000             0.952628             0.075810
C            -0.700000            -3.637307             0.038587
C             0.700000            -3.637307             0.036083
C             1.400000            -4.849742             0.079037
C             2.800000            -4.849742             0.075924
C             3.500000            -6.062178             0.006995
C             4.900000            -6.062178             0.029194
C             5.600000            -7.274613             0.084672
C             7.000000            -7.274613             0.002394
C             7.700000            -8.487049             0.075096
C             9.100000            -8.487049             0.064714
H             9.650000            -9.439677             0.062787
C            -4.900000            -1.212436             0.020692
C            -5.600000            -2.424871             0.077109
C            -4.900000            -3.637307             0.033554
C            -3.500000            -3.637307             0.099367
H            -5.450000            -0.259808             0.018159
C            -2.800000            -4.849742             0.056282
C            -1.400000            -4.849742             0.012429
C            -0.700000            -6.062178             0.057559
C             0.700000            -6.062178             0.068762
C             1.400000            -7.274613             0.013459
C             2.800000            -7.274613             0.052071
C             3.500000            -8.487049             0.059766
C             4.900000            -8.487049             0.014470
C             5.600000            -9.699485             0.091665
C             7.000000            -9.699485             0.062404
H             7.550000           -10.652112             0.074856
C            -7.000000            -2.424871             0.077726
C            -7.700000            -3.637307             0.045095
C            -7.000000            -4.849742             0.006028
C            -5.600000            -4.849742             0.032849
H            -7.550000            -1.472243             0.002880
H            -8.800000            -3.637307             0.056306
H            -7.550000            -5.802370             0.030792
C            -4.900000            -6.062178             0.044558
C            -3.500000            -6.062178             0.051260
H            -5.450000            -7.014806             0.088683
C            -2.800000            -7.274613             0.011086
C            -1.400000            -7.274613             0.070458
H            -3.350000            -8.227241             0.017205
C            -0.700000            -8.487049             0.027777
C             0.700000            -8.487049             0.071756
H            -1.250000            -9.439677             0.016381
C             1.400000            -9.699485             0.069473
C             2.800000            -9.699485             0.021776
H             0.850000           -10.652112             0.054357
C             3.500000           -10.911920             0.099784
C             4.900000           -10.911920             0.027187
H             2.950000           -11.864548             0.097551
H             5.450000           -11.864548             0.071766
