90
isomero_27_18
C             0.700000             1.212436             0.080217
C            -0.700000             1.212436             0.010332
C            -1.400000             0.000000             0.063818
C            -0.700000            -1.212436             0.006296
C             0.700000            -1.212436             0.079706
C             1.400000            -0.000000             0.034868
H             1.250000             2.165064             0.070910
H            -1.250000             2.165064             0.017682
C             2.800000             0.000000             0.091377
C             1.400000            -2.424871             0.037224
C             2.800000            -2.424871             0.090273
C             3.500000            -1.212436             0.026334
H             3.350000             0.952628             0.022429
C             4.900000            -1.212436             0.042267
C             3.500000            -3.637307             0.059633
C             4.900000            -3.637307             0.019082
C             5.600000            -2.424871             0.007089
H             5.450000            -0.259808             0.065840
C             7.000000            -2.424871             0.077065
C             5.600000            -4.849742             0.064374
C             7.000000            -4.849742             0.063071
C             7.700000            -3.637307             0.047502
H             7.550000            -1.472243             0.077890
C             9.100000            -3.637307             0.005813
C             7.700000            -6.062178             0.003431
C             9.100000            -6.062178             0.003568
C             9.800000            -4.849742             0.012744
H             9.650000            -2.684679             0.055001
C            11.200000            -4.849742             0.072591
C             9.800000            -7.274613             0.011178
C            11.200000            -7.274613             0.089785
C            11.900000            -6.062178             0.097747
H            11.750000            -3.897114             0.073643
H            11.750000            -8.227241             0.010787
H            13.000000            -6.062178             0.066519
C            -2.800000             0.000000             0.082688
C            -3.500000            -1.212436             0.076798
N            -2.800000            -2.424871             0.093186
C            -1.400000            -2.424871             0.095521
H            -3.350000             0.952628             0.021134
C            -0.700000            -3.637307             0.068936
C             0.700000            -3.637307             0.092556
C             1.400000            -4.849742             0.017942
C             2.800000            -4.849742             0.042213
C             3.500000            -6.062178             0.078221
C             4.900000            -6.062178             0.061759
C             5.600000            -7.274613             0.084596
C             7.000000            -7.274613             0.090620
C             7.700000            -8.487049             0.033013
C             9.100000            -8.487049             0.058264
H             9.650000            -9.439677             0.008237
C            -4.900000            -1.212436             0.074337
C            -5.600000            -2.424871             0.083414
C            -4.900000            -3.637307             0.087781
B            -3.500000            -3.637307             0.093003
H            -5.450000            -0.259808             0.029590
C            -2.800000            -4.849742             0.011696
C            -1.400000            -4.849742             0.024977
C            -0.700000            -6.062178             0.076543
C             0.700000            -6.062178             0.051071
C             1.400000            -7.274613             0.069808
C             2.800000            -7.274613             0.027672
C             3.500000            -8.487049             0.006703
C             4.900000            -8.487049             0.093469
C             5.600000            -9.699485             0.015541
C             7.000000            -9.699485             0.067922
H             7.550000           -10.652112             0.053548
C            -7.000000            -2.424871             0.096288
C            -7.700000            -3.637307             0.038904
C            -7.000000            -4.849742             0.084603
C            -5.600000            -4.849742             0.009675
H            -7.550000            -1.472243             0.030845
H            -8.800000            -3.637307             0.026573
H            -7.550000            -5.802370             0.029847
C            -4.900000            -6.062178             0.021624
C            -3.500000            -6.062178             0.053742
H            -5.450000            -7.014806             0.063953
C            -2.800000            -7.274613             0.096885
C            -1.400000            -7.274613             0.015581
H            -3.350000            -8.227241             0.093183
C            -0.700000            -8.487049             0.093980
C             0.700000            -8.487049             0.099747
H            -1.250000            -9.439677             0.048894
C             1.400000            -9.699485             0.050371
C             2.800000            -9.699485             0.088376
H             0.850000           -10.652112             0.069409
C             3.500000           -10.911920             0.012299
C             4.900000           -10.911920             0.073072
H             2.950000           -11.864548             0.081970
H             5.450000           -11.864548             0.067725
