90
isomero_34_44
C             0.700000             1.212436             0.038071
C            -0.700000             1.212436             0.092375
C            -1.400000             0.000000             0.058616
C            -0.700000            -1.212436             0.035078
C             0.700000            -1.212436             0.029638
C             1.400000            -0.000000             0.033999
H             1.250000             2.165064             0.063496
H            -1.250000             2.165064             0.014310
C             2.800000             0.000000             0.077961
C             1.400000            -2.424871             0.028083
C             2.800000            -2.424871             0.029595
C             3.500000            -1.212436             0.039498
H             3.350000             0.952628             0.031718
C             4.900000            -1.212436             0.023397
C             3.500000            -3.637307             0.023642
C             4.900000            -3.637307             0.037731
C             5.600000            -2.424871             0.007616
H             5.450000            -0.259808             0.080057
C             7.000000            -2.424871             0.022770
C             5.600000            -4.849742             0.019274
C             7.000000            -4.849742             0.026007
C             7.700000            -3.637307             0.007919
H             7.550000            -1.472243             0.075221
C             9.100000            -3.637307             0.022148
C             7.700000            -6.062178             0.062165
C             9.100000            -6.062178             0.008365
C             9.800000            -4.849742             0.078988
H             9.650000            -2.684679             0.001881
C            11.200000            -4.849742             0.014285
C             9.800000            -7.274613             0.056049
C            11.200000            -7.274613             0.019991
C            11.900000            -6.062178             0.067444
H            11.750000            -3.897114             0.025046
H            11.750000            -8.227241             0.041276
H            13.000000            -6.062178             0.060823
C            -2.800000             0.000000             0.022965
C            -3.500000            -1.212436             0.054046
C            -2.800000            -2.424871             0.016881
C            -1.400000            -2.424871             0.045894
H            -3.350000             0.952628             0.026225
C            -0.700000            -3.637307             0.027189
C             0.700000            -3.637307             0.060108
C             1.400000            -4.849742             0.074385
B             2.800000            -4.849742             0.037471
N             3.500000            -6.062178             0.093320
C             4.900000            -6.062178             0.075169
C             5.600000            -7.274613             0.033778
C             7.000000            -7.274613             0.078345
C             7.700000            -8.487049             0.021074
C             9.100000            -8.487049             0.077771
H             9.650000            -9.439677             0.075596
C            -4.900000            -1.212436             0.032326
C            -5.600000            -2.424871             0.053838
C            -4.900000            -3.637307             0.047613
C            -3.500000            -3.637307             0.048786
H            -5.450000            -0.259808             0.010149
C            -2.800000            -4.849742             0.029523
C            -1.400000            -4.849742             0.015032
C            -0.700000            -6.062178             0.050852
C             0.700000            -6.062178             0.061254
C             1.400000            -7.274613             0.043290
C             2.800000            -7.274613             0.083160
C             3.500000            -8.487049             0.023878
C             4.900000            -8.487049             0.019764
C             5.600000            -9.699485             0.012042
C             7.000000            -9.699485             0.084761
H             7.550000           -10.652112             0.006371
C            -7.000000            -2.424871             0.086115
C            -7.700000            -3.637307             0.005730
C            -7.000000            -4.849742             0.098254
C            -5.600000            -4.849742             0.049952
H            -7.550000            -1.472243             0.044242
H            -8.800000            -3.637307             0.043640
H            -7.550000            -5.802370             0.029161
C            -4.900000            -6.062178             0.032244
C            -3.500000            -6.062178             0.098683
H            -5.450000            -7.014806             0.099592
C            -2.800000            -7.274613             0.006998
C            -1.400000            -7.274613             0.041994
H            -3.350000            -8.227241             0.054500
C            -0.700000            -8.487049             0.030330
C             0.700000            -8.487049             0.026216
H            -1.250000            -9.439677             0.035165
C             1.400000            -9.699485             0.076313
C             2.800000            -9.699485             0.018030
H             0.850000           -10.652112             0.000001
C             3.500000           -10.911920             0.048964
C             4.900000           -10.911920             0.027993
H             2.950000           -11.864548             0.041576
H             5.450000           -11.864548             0.088882
