90
isomero_25_16
C             0.700000             1.212436             0.089057
C            -0.700000             1.212436             0.028121
C            -1.400000             0.000000             0.096365
C            -0.700000            -1.212436             0.071318
C             0.700000            -1.212436             0.077105
C             1.400000            -0.000000             0.048855
H             1.250000             2.165064             0.097735
H            -1.250000             2.165064             0.021199
C             2.800000             0.000000             0.099281
N             1.400000            -2.424871             0.076032
C             2.800000            -2.424871             0.048141
C             3.500000            -1.212436             0.063218
H             3.350000             0.952628             0.079259
C             4.900000            -1.212436             0.064970
C             3.500000            -3.637307             0.019358
C             4.900000            -3.637307             0.045463
C             5.600000            -2.424871             0.030397
H             5.450000            -0.259808             0.002967
C             7.000000            -2.424871             0.031603
C             5.600000            -4.849742             0.094319
C             7.000000            -4.849742             0.024039
C             7.700000            -3.637307             0.057323
H             7.550000            -1.472243             0.091373
C             9.100000            -3.637307             0.020507
C             7.700000            -6.062178             0.013996
C             9.100000            -6.062178             0.068907
C             9.800000            -4.849742             0.001949
H             9.650000            -2.684679             0.068896
C            11.200000            -4.849742             0.088178
C             9.800000            -7.274613             0.018047
C            11.200000            -7.274613             0.016800
C            11.900000            -6.062178             0.070593
H            11.750000            -3.897114             0.044387
H            11.750000            -8.227241             0.099550
H            13.000000            -6.062178             0.039364
C            -2.800000             0.000000             0.084210
C            -3.500000            -1.212436             0.044578
C            -2.800000            -2.424871             0.004015
C            -1.400000            -2.424871             0.028395
H            -3.350000             0.952628             0.046888
C            -0.700000            -3.637307             0.041955
B             0.700000            -3.637307             0.020546
C             1.400000            -4.849742             0.082935
C             2.800000            -4.849742             0.081541
C             3.500000            -6.062178             0.040315
C             4.900000            -6.062178             0.020863
C             5.600000            -7.274613             0.012061
C             7.000000            -7.274613             0.045731
C             7.700000            -8.487049             0.095356
C             9.100000            -8.487049             0.075289
H             9.650000            -9.439677             0.098996
C            -4.900000            -1.212436             0.001406
C            -5.600000            -2.424871             0.052848
C            -4.900000            -3.637307             0.047479
C            -3.500000            -3.637307             0.095014
H            -5.450000            -0.259808             0.063691
C            -2.800000            -4.849742             0.090893
C            -1.400000            -4.849742             0.036362
C            -0.700000            -6.062178             0.098938
C             0.700000            -6.062178             0.060645
C             1.400000            -7.274613             0.016598
C             2.800000            -7.274613             0.010663
C             3.500000            -8.487049             0.099224
C             4.900000            -8.487049             0.026221
C             5.600000            -9.699485             0.082382
C             7.000000            -9.699485             0.024153
H             7.550000           -10.652112             0.081548
C            -7.000000            -2.424871             0.061693
C            -7.700000            -3.637307             0.031043
C            -7.000000            -4.849742             0.002023
C            -5.600000            -4.849742             0.063105
H            -7.550000            -1.472243             0.098007
H            -8.800000            -3.637307             0.064339
H            -7.550000            -5.802370             0.081377
C            -4.900000            -6.062178             0.065843
C            -3.500000            -6.062178             0.063332
H            -5.450000            -7.014806             0.058491
C            -2.800000            -7.274613             0.004285
C            -1.400000            -7.274613             0.056301
H            -3.350000            -8.227241             0.007522
C            -0.700000            -8.487049             0.051244
C             0.700000            -8.487049             0.063257
H            -1.250000            -9.439677             0.098118
C             1.400000            -9.699485             0.013666
C             2.800000            -9.699485             0.055084
H             0.850000           -10.652112             0.018247
C             3.500000           -10.911920             0.005476
C             4.900000           -10.911920             0.077558
H             2.950000           -11.864548             0.072701
H             5.450000           -11.864548             0.070535
