90
isomero_13_14
C             0.700000             1.212436             0.072064
C            -0.700000             1.212436             0.001171
C            -1.400000             0.000000             0.083027
C            -0.700000            -1.212436             0.062743
C             0.700000            -1.212436             0.099684
C             1.400000            -0.000000             0.005559
H             1.250000             2.165064             0.032226
H            -1.250000             2.165064             0.098508
C             2.800000             0.000000             0.077903
C             1.400000            -2.424871             0.072082
C             2.800000            -2.424871             0.073603
C             3.500000            -1.212436             0.010736
H             3.350000             0.952628             0.087534
C             4.900000            -1.212436             0.086760
C             3.500000            -3.637307             0.006133
C             4.900000            -3.637307             0.077529
N             5.600000            -2.424871             0.010088
H             5.450000            -0.259808             0.077120
B             7.000000            -2.424871             0.078092
C             5.600000            -4.849742             0.003325
C             7.000000            -4.849742             0.040341
C             7.700000            -3.637307             0.019589
H             7.550000            -1.472243             0.059668
C             9.100000            -3.637307             0.065617
C             7.700000            -6.062178             0.050060
C             9.100000            -6.062178             0.025543
C             9.800000            -4.849742             0.023067
H             9.650000            -2.684679             0.024907
C            11.200000            -4.849742             0.042641
C             9.800000            -7.274613             0.029882
C            11.200000            -7.274613             0.007889
C            11.900000            -6.062178             0.019871
H            11.750000            -3.897114             0.017650
H            11.750000            -8.227241             0.008179
H            13.000000            -6.062178             0.064049
C            -2.800000             0.000000             0.022727
C            -3.500000            -1.212436             0.094890
C            -2.800000            -2.424871             0.014834
C            -1.400000            -2.424871             0.040065
H            -3.350000             0.952628             0.040956
C            -0.700000            -3.637307             0.059463
C             0.700000            -3.637307             0.042325
C             1.400000            -4.849742             0.090334
C             2.800000            -4.849742             0.000895
C             3.500000            -6.062178             0.067576
C             4.900000            -6.062178             0.093866
C             5.600000            -7.274613             0.063570
C             7.000000            -7.274613             0.057397
C             7.700000            -8.487049             0.050966
C             9.100000            -8.487049             0.038340
H             9.650000            -9.439677             0.086858
C            -4.900000            -1.212436             0.061431
C            -5.600000            -2.424871             0.070107
C            -4.900000            -3.637307             0.095501
C            -3.500000            -3.637307             0.022835
H            -5.450000            -0.259808             0.072764
C            -2.800000            -4.849742             0.019904
C            -1.400000            -4.849742             0.044150
C            -0.700000            -6.062178             0.033899
C             0.700000            -6.062178             0.066900
C             1.400000            -7.274613             0.098238
C             2.800000            -7.274613             0.066974
C             3.500000            -8.487049             0.014028
C             4.900000            -8.487049             0.046079
C             5.600000            -9.699485             0.002274
C             7.000000            -9.699485             0.036486
H             7.550000           -10.652112             0.033307
C            -7.000000            -2.424871             0.092714
C            -7.700000            -3.637307             0.031820
C            -7.000000            -4.849742             0.063457
C            -5.600000            -4.849742             0.072997
H            -7.550000            -1.472243             0.021011
H            -8.800000            -3.637307             0.038414
H            -7.550000            -5.802370             0.011729
C            -4.900000            -6.062178             0.012904
C            -3.500000            -6.062178             0.068386
H            -5.450000            -7.014806             0.071126
C            -2.800000            -7.274613             0.040457
C            -1.400000            -7.274613             0.000645
H            -3.350000            -8.227241             0.034725
C            -0.700000            -8.487049             0.057394
C             0.700000            -8.487049             0.053245
H            -1.250000            -9.439677             0.022821
C             1.400000            -9.699485             0.098020
C             2.800000            -9.699485             0.023987
H             0.850000           -10.652112             0.046654
C             3.500000           -10.911920             0.063359
C             4.900000           -10.911920             0.099464
H             2.950000           -11.864548             0.083878
H             5.450000           -11.864548             0.049961
