90
isomero_18_11
C             0.700000             1.212436             0.013115
C            -0.700000             1.212436             0.067225
C            -1.400000             0.000000             0.023229
C            -0.700000            -1.212436             0.003993
C             0.700000            -1.212436             0.004120
C             1.400000            -0.000000             0.095921
H             1.250000             2.165064             0.039561
H            -1.250000             2.165064             0.056294
C             2.800000             0.000000             0.000183
C             1.400000            -2.424871             0.001132
C             2.800000            -2.424871             0.022468
C             3.500000            -1.212436             0.098513
H             3.350000             0.952628             0.035796
C             4.900000            -1.212436             0.009403
C             3.500000            -3.637307             0.065683
C             4.900000            -3.637307             0.081805
C             5.600000            -2.424871             0.015020
H             5.450000            -0.259808             0.089185
C             7.000000            -2.424871             0.050987
C             5.600000            -4.849742             0.073808
C             7.000000            -4.849742             0.047759
C             7.700000            -3.637307             0.046469
H             7.550000            -1.472243             0.094417
C             9.100000            -3.637307             0.015875
C             7.700000            -6.062178             0.071276
C             9.100000            -6.062178             0.054636
C             9.800000            -4.849742             0.024774
H             9.650000            -2.684679             0.077296
C            11.200000            -4.849742             0.045954
C             9.800000            -7.274613             0.025868
C            11.200000            -7.274613             0.098608
C            11.900000            -6.062178             0.072215
H            11.750000            -3.897114             0.030713
H            11.750000            -8.227241             0.071333
H            13.000000            -6.062178             0.064142
C            -2.800000             0.000000             0.083087
N            -3.500000            -1.212436             0.085334
B            -2.800000            -2.424871             0.072802
C            -1.400000            -2.424871             0.039581
H            -3.350000             0.952628             0.006762
C            -0.700000            -3.637307             0.016518
C             0.700000            -3.637307             0.098771
C             1.400000            -4.849742             0.024066
C             2.800000            -4.849742             0.093263
C             3.500000            -6.062178             0.010467
C             4.900000            -6.062178             0.095345
C             5.600000            -7.274613             0.002665
C             7.000000            -7.274613             0.069249
C             7.700000            -8.487049             0.026316
C             9.100000            -8.487049             0.020529
H             9.650000            -9.439677             0.091327
C            -4.900000            -1.212436             0.029021
C            -5.600000            -2.424871             0.026564
C            -4.900000            -3.637307             0.050657
C            -3.500000            -3.637307             0.058119
H            -5.450000            -0.259808             0.002919
C            -2.800000            -4.849742             0.006175
C            -1.400000            -4.849742             0.099548
C            -0.700000            -6.062178             0.060430
C             0.700000            -6.062178             0.083055
C             1.400000            -7.274613             0.036382
C             2.800000            -7.274613             0.075774
C             3.500000            -8.487049             0.061324
C             4.900000            -8.487049             0.085715
C             5.600000            -9.699485             0.092783
C             7.000000            -9.699485             0.051620
H             7.550000           -10.652112             0.076884
C            -7.000000            -2.424871             0.079117
C            -7.700000            -3.637307             0.061777
C            -7.000000            -4.849742             0.069261
C            -5.600000            -4.849742             0.035264
H            -7.550000            -1.472243             0.007125
H            -8.800000            -3.637307             0.063416
H            -7.550000            -5.802370             0.082794
C            -4.900000            -6.062178             0.044139
C            -3.500000            -6.062178             0.007744
H            -5.450000            -7.014806             0.008837
C            -2.800000            -7.274613             0.010556
C            -1.400000            -7.274613             0.046306
H            -3.350000            -8.227241             0.083206
C            -0.700000            -8.487049             0.023029
C             0.700000            -8.487049             0.070875
H            -1.250000            -9.439677             0.063091
C             1.400000            -9.699485             0.072660
C             2.800000            -9.699485             0.021915
H             0.850000           -10.652112             0.034163
C             3.500000           -10.911920             0.062161
C             4.900000           -10.911920             0.043883
H             2.950000           -11.864548             0.048257
H             5.450000           -11.864548             0.025389
