90
isomero_14_13
C             0.700000             1.212436             0.031837
C            -0.700000             1.212436             0.044966
C            -1.400000             0.000000             0.000851
C            -0.700000            -1.212436             0.039580
C             0.700000            -1.212436             0.051419
C             1.400000            -0.000000             0.082584
H             1.250000             2.165064             0.024837
H            -1.250000             2.165064             0.000799
C             2.800000             0.000000             0.027899
C             1.400000            -2.424871             0.004913
C             2.800000            -2.424871             0.007133
C             3.500000            -1.212436             0.009018
H             3.350000             0.952628             0.061911
C             4.900000            -1.212436             0.067778
C             3.500000            -3.637307             0.030560
C             4.900000            -3.637307             0.092248
B             5.600000            -2.424871             0.001106
H             5.450000            -0.259808             0.017604
N             7.000000            -2.424871             0.080099
C             5.600000            -4.849742             0.085223
C             7.000000            -4.849742             0.081261
C             7.700000            -3.637307             0.082830
H             7.550000            -1.472243             0.098233
C             9.100000            -3.637307             0.031087
C             7.700000            -6.062178             0.022965
C             9.100000            -6.062178             0.049144
C             9.800000            -4.849742             0.070553
H             9.650000            -2.684679             0.042476
C            11.200000            -4.849742             0.014232
C             9.800000            -7.274613             0.053219
C            11.200000            -7.274613             0.091765
C            11.900000            -6.062178             0.010844
H            11.750000            -3.897114             0.022739
H            11.750000            -8.227241             0.091190
H            13.000000            -6.062178             0.002700
C            -2.800000             0.000000             0.069847
C            -3.500000            -1.212436             0.017115
C            -2.800000            -2.424871             0.058420
C            -1.400000            -2.424871             0.086412
H            -3.350000             0.952628             0.083220
C            -0.700000            -3.637307             0.037622
C             0.700000            -3.637307             0.062113
C             1.400000            -4.849742             0.029596
C             2.800000            -4.849742             0.048112
C             3.500000            -6.062178             0.051741
C             4.900000            -6.062178             0.015943
C             5.600000            -7.274613             0.048707
C             7.000000            -7.274613             0.084190
C             7.700000            -8.487049             0.066368
C             9.100000            -8.487049             0.039539
H             9.650000            -9.439677             0.013528
C            -4.900000            -1.212436             0.039961
C            -5.600000            -2.424871             0.021114
C            -4.900000            -3.637307             0.031725
C            -3.500000            -3.637307             0.083310
H            -5.450000            -0.259808             0.054232
C            -2.800000            -4.849742             0.015969
C            -1.400000            -4.849742             0.013315
C            -0.700000            -6.062178             0.075503
C             0.700000            -6.062178             0.063537
C             1.400000            -7.274613             0.069914
C             2.800000            -7.274613             0.097294
C             3.500000            -8.487049             0.041347
C             4.900000            -8.487049             0.023483
C             5.600000            -9.699485             0.016075
C             7.000000            -9.699485             0.013687
H             7.550000           -10.652112             0.012764
C            -7.000000            -2.424871             0.060407
C            -7.700000            -3.637307             0.096520
C            -7.000000            -4.849742             0.017711
C            -5.600000            -4.849742             0.005713
H            -7.550000            -1.472243             0.069908
H            -8.800000            -3.637307             0.011464
H            -7.550000            -5.802370             0.026436
C            -4.900000            -6.062178             0.001491
C            -3.500000            -6.062178             0.008415
H            -5.450000            -7.014806             0.038420
C            -2.800000            -7.274613             0.088497
C            -1.400000            -7.274613             0.093325
H            -3.350000            -8.227241             0.018587
C            -0.700000            -8.487049             0.050259
C             0.700000            -8.487049             0.013389
H            -1.250000            -9.439677             0.033939
C             1.400000            -9.699485             0.058326
C             2.800000            -9.699485             0.021246
H             0.850000           -10.652112             0.036341
C             3.500000           -10.911920             0.080948
C             4.900000           -10.911920             0.003726
H             2.950000           -11.864548             0.097476
H             5.450000           -11.864548             0.082346
