90
isomero_12_19
C             0.700000             1.212436             0.000255
C            -0.700000             1.212436             0.000661
C            -1.400000             0.000000             0.051725
C            -0.700000            -1.212436             0.035053
C             0.700000            -1.212436             0.025886
C             1.400000            -0.000000             0.082743
H             1.250000             2.165064             0.027342
H            -1.250000             2.165064             0.076840
C             2.800000             0.000000             0.009163
C             1.400000            -2.424871             0.070511
C             2.800000            -2.424871             0.085585
C             3.500000            -1.212436             0.041507
H             3.350000             0.952628             0.098512
C             4.900000            -1.212436             0.056692
C             3.500000            -3.637307             0.039541
C             4.900000            -3.637307             0.068378
C             5.600000            -2.424871             0.019917
H             5.450000            -0.259808             0.018212
C             7.000000            -2.424871             0.081173
C             5.600000            -4.849742             0.069469
C             7.000000            -4.849742             0.008181
C             7.700000            -3.637307             0.066298
H             7.550000            -1.472243             0.051080
C             9.100000            -3.637307             0.016836
C             7.700000            -6.062178             0.005196
C             9.100000            -6.062178             0.039774
C             9.800000            -4.849742             0.007235
H             9.650000            -2.684679             0.058477
C            11.200000            -4.849742             0.008299
C             9.800000            -7.274613             0.069182
C            11.200000            -7.274613             0.010883
C            11.900000            -6.062178             0.007890
H            11.750000            -3.897114             0.094600
H            11.750000            -8.227241             0.048533
H            13.000000            -6.062178             0.002845
C            -2.800000             0.000000             0.062514
C            -3.500000            -1.212436             0.024627
C            -2.800000            -2.424871             0.038433
C            -1.400000            -2.424871             0.029841
H            -3.350000             0.952628             0.014342
C            -0.700000            -3.637307             0.013102
C             0.700000            -3.637307             0.006729
C             1.400000            -4.849742             0.080252
C             2.800000            -4.849742             0.045620
C             3.500000            -6.062178             0.060118
C             4.900000            -6.062178             0.033343
C             5.600000            -7.274613             0.021578
C             7.000000            -7.274613             0.056177
C             7.700000            -8.487049             0.087544
C             9.100000            -8.487049             0.045995
H             9.650000            -9.439677             0.082828
B            -4.900000            -1.212436             0.061280
N            -5.600000            -2.424871             0.070671
C            -4.900000            -3.637307             0.012256
C            -3.500000            -3.637307             0.029960
H            -5.450000            -0.259808             0.068239
C            -2.800000            -4.849742             0.075282
C            -1.400000            -4.849742             0.054568
C            -0.700000            -6.062178             0.072248
C             0.700000            -6.062178             0.046293
C             1.400000            -7.274613             0.004373
C             2.800000            -7.274613             0.005048
C             3.500000            -8.487049             0.066200
C             4.900000            -8.487049             0.086358
C             5.600000            -9.699485             0.049145
C             7.000000            -9.699485             0.042677
H             7.550000           -10.652112             0.079231
C            -7.000000            -2.424871             0.039066
C            -7.700000            -3.637307             0.047588
C            -7.000000            -4.849742             0.016637
C            -5.600000            -4.849742             0.055681
H            -7.550000            -1.472243             0.005068
H            -8.800000            -3.637307             0.068132
H            -7.550000            -5.802370             0.094212
C            -4.900000            -6.062178             0.066232
C            -3.500000            -6.062178             0.011524
H            -5.450000            -7.014806             0.015457
C            -2.800000            -7.274613             0.029363
C            -1.400000            -7.274613             0.092678
H            -3.350000            -8.227241             0.080804
C            -0.700000            -8.487049             0.057522
C             0.700000            -8.487049             0.056359
H            -1.250000            -9.439677             0.055292
C             1.400000            -9.699485             0.093984
C             2.800000            -9.699485             0.065850
H             0.850000           -10.652112             0.032314
C             3.500000           -10.911920             0.003622
C             4.900000           -10.911920             0.097210
H             2.950000           -11.864548             0.046400
H             5.450000           -11.864548             0.059104
