90
isomero_6_5
C             0.700000             1.212436             0.032593
C            -0.700000             1.212436             0.080274
N            -1.400000             0.000000             0.053157
C            -0.700000            -1.212436             0.095896
C             0.700000            -1.212436             0.010826
C             1.400000            -0.000000             0.082099
H             1.250000             2.165064             0.068866
H            -1.250000             2.165064             0.081260
C             2.800000             0.000000             0.078061
C             1.400000            -2.424871             0.044037
C             2.800000            -2.424871             0.075459
C             3.500000            -1.212436             0.091022
H             3.350000             0.952628             0.013993
C             4.900000            -1.212436             0.082234
C             3.500000            -3.637307             0.031131
C             4.900000            -3.637307             0.027161
C             5.600000            -2.424871             0.082587
H             5.450000            -0.259808             0.023631
C             7.000000            -2.424871             0.021103
C             5.600000            -4.849742             0.079880
C             7.000000            -4.849742             0.030518
C             7.700000            -3.637307             0.037647
H             7.550000            -1.472243             0.001977
C             9.100000            -3.637307             0.059472
C             7.700000            -6.062178             0.052515
C             9.100000            -6.062178             0.001864
C             9.800000            -4.849742             0.038570
H             9.650000            -2.684679             0.034569
C            11.200000            -4.849742             0.011687
C             9.800000            -7.274613             0.052227
C            11.200000            -7.274613             0.088551
C            11.900000            -6.062178             0.097254
H            11.750000            -3.897114             0.073152
H            11.750000            -8.227241             0.053004
H            13.000000            -6.062178             0.099977
B            -2.800000             0.000000             0.034592
C            -3.500000            -1.212436             0.036527
C            -2.800000            -2.424871             0.001099
C            -1.400000            -2.424871             0.000762
H            -3.350000             0.952628             0.020839
C            -0.700000            -3.637307             0.076186
C             0.700000            -3.637307             0.079266
C             1.400000            -4.849742             0.034185
C             2.800000            -4.849742             0.005712
C             3.500000            -6.062178             0.019599
C             4.900000            -6.062178             0.058383
C             5.600000            -7.274613             0.092459
C             7.000000            -7.274613             0.037013
C             7.700000            -8.487049             0.024735
C             9.100000            -8.487049             0.013389
H             9.650000            -9.439677             0.088373
C            -4.900000            -1.212436             0.048224
C            -5.600000            -2.424871             0.034080
C            -4.900000            -3.637307             0.032316
C            -3.500000            -3.637307             0.071326
H            -5.450000            -0.259808             0.039013
C            -2.800000            -4.849742             0.033113
C            -1.400000            -4.849742             0.050775
C            -0.700000            -6.062178             0.003318
C             0.700000            -6.062178             0.078212
C             1.400000            -7.274613             0.070797
C             2.800000            -7.274613             0.077795
C             3.500000            -8.487049             0.025442
C             4.900000            -8.487049             0.030679
C             5.600000            -9.699485             0.081802
C             7.000000            -9.699485             0.013716
H             7.550000           -10.652112             0.069757
C            -7.000000            -2.424871             0.093986
C            -7.700000            -3.637307             0.039595
C            -7.000000            -4.849742             0.037623
C            -5.600000            -4.849742             0.005597
H            -7.550000            -1.472243             0.012805
H            -8.800000            -3.637307             0.010198
H            -7.550000            -5.802370             0.075637
C            -4.900000            -6.062178             0.086602
C            -3.500000            -6.062178             0.099659
H            -5.450000            -7.014806             0.009848
C            -2.800000            -7.274613             0.017257
C            -1.400000            -7.274613             0.048452
H            -3.350000            -8.227241             0.093727
C            -0.700000            -8.487049             0.050960
C             0.700000            -8.487049             0.021629
H            -1.250000            -9.439677             0.005147
C             1.400000            -9.699485             0.064995
C             2.800000            -9.699485             0.040300
H             0.850000           -10.652112             0.022083
C             3.500000           -10.911920             0.004801
C             4.900000           -10.911920             0.046645
H             2.950000           -11.864548             0.057044
H             5.450000           -11.864548             0.072950
