90
isomero_27_28
C             0.700000             1.212436             0.025053
C            -0.700000             1.212436             0.085964
C            -1.400000             0.000000             0.030736
C            -0.700000            -1.212436             0.086007
C             0.700000            -1.212436             0.099426
C             1.400000            -0.000000             0.042193
H             1.250000             2.165064             0.097112
H            -1.250000             2.165064             0.087872
C             2.800000             0.000000             0.042572
C             1.400000            -2.424871             0.093083
C             2.800000            -2.424871             0.005704
C             3.500000            -1.212436             0.072081
H             3.350000             0.952628             0.037679
C             4.900000            -1.212436             0.012908
C             3.500000            -3.637307             0.029075
C             4.900000            -3.637307             0.070496
C             5.600000            -2.424871             0.035897
H             5.450000            -0.259808             0.011699
C             7.000000            -2.424871             0.012063
C             5.600000            -4.849742             0.068143
C             7.000000            -4.849742             0.010839
C             7.700000            -3.637307             0.067648
H             7.550000            -1.472243             0.044524
C             9.100000            -3.637307             0.036038
C             7.700000            -6.062178             0.015582
C             9.100000            -6.062178             0.046449
C             9.800000            -4.849742             0.033612
H             9.650000            -2.684679             0.013634
C            11.200000            -4.849742             0.050490
C             9.800000            -7.274613             0.005730
C            11.200000            -7.274613             0.082749
C            11.900000            -6.062178             0.051901
H            11.750000            -3.897114             0.019949
H            11.750000            -8.227241             0.064508
H            13.000000            -6.062178             0.001439
C            -2.800000             0.000000             0.048208
C            -3.500000            -1.212436             0.034569
C            -2.800000            -2.424871             0.019001
C            -1.400000            -2.424871             0.053424
H            -3.350000             0.952628             0.021316
C            -0.700000            -3.637307             0.002356
C             0.700000            -3.637307             0.026129
C             1.400000            -4.849742             0.085883
C             2.800000            -4.849742             0.026483
C             3.500000            -6.062178             0.070938
C             4.900000            -6.062178             0.074225
C             5.600000            -7.274613             0.031479
C             7.000000            -7.274613             0.072940
C             7.700000            -8.487049             0.044511
C             9.100000            -8.487049             0.080388
H             9.650000            -9.439677             0.068301
C            -4.900000            -1.212436             0.049349
C            -5.600000            -2.424871             0.024967
N            -4.900000            -3.637307             0.096416
B            -3.500000            -3.637307             0.044017
H            -5.450000            -0.259808             0.041055
C            -2.800000            -4.849742             0.031271
C            -1.400000            -4.849742             0.036142
C            -0.700000            -6.062178             0.052019
C             0.700000            -6.062178             0.010915
C             1.400000            -7.274613             0.019848
C             2.800000            -7.274613             0.043829
C             3.500000            -8.487049             0.029870
C             4.900000            -8.487049             0.055830
C             5.600000            -9.699485             0.009043
C             7.000000            -9.699485             0.047657
H             7.550000           -10.652112             0.008669
C            -7.000000            -2.424871             0.046315
C            -7.700000            -3.637307             0.056598
C            -7.000000            -4.849742             0.035872
C            -5.600000            -4.849742             0.062996
H            -7.550000            -1.472243             0.040859
H            -8.800000            -3.637307             0.064802
H            -7.550000            -5.802370             0.061993
C            -4.900000            -6.062178             0.090205
C            -3.500000            -6.062178             0.096962
H            -5.450000            -7.014806             0.043046
C            -2.800000            -7.274613             0.097472
C            -1.400000            -7.274613             0.051918
H            -3.350000            -8.227241             0.057383
C            -0.700000            -8.487049             0.076804
C             0.700000            -8.487049             0.004063
H            -1.250000            -9.439677             0.005421
C             1.400000            -9.699485             0.042045
C             2.800000            -9.699485             0.030112
H             0.850000           -10.652112             0.017204
C             3.500000           -10.911920             0.002840
C             4.900000           -10.911920             0.024992
H             2.950000           -11.864548             0.063493
H             5.450000           -11.864548             0.009643
