90
isomero_15_16
C             0.700000             1.212436             0.085364
C            -0.700000             1.212436             0.045935
C            -1.400000             0.000000             0.096614
C            -0.700000            -1.212436             0.025155
C             0.700000            -1.212436             0.096529
C             1.400000            -0.000000             0.051279
H             1.250000             2.165064             0.089693
H            -1.250000             2.165064             0.077567
C             2.800000             0.000000             0.082649
N             1.400000            -2.424871             0.042447
B             2.800000            -2.424871             0.066392
C             3.500000            -1.212436             0.081140
H             3.350000             0.952628             0.080978
C             4.900000            -1.212436             0.001247
C             3.500000            -3.637307             0.010086
C             4.900000            -3.637307             0.086326
C             5.600000            -2.424871             0.005134
H             5.450000            -0.259808             0.000919
C             7.000000            -2.424871             0.018166
C             5.600000            -4.849742             0.007147
C             7.000000            -4.849742             0.070865
C             7.700000            -3.637307             0.018675
H             7.550000            -1.472243             0.080286
C             9.100000            -3.637307             0.051234
C             7.700000            -6.062178             0.074670
C             9.100000            -6.062178             0.054969
C             9.800000            -4.849742             0.000876
H             9.650000            -2.684679             0.029946
C            11.200000            -4.849742             0.012430
C             9.800000            -7.274613             0.062256
C            11.200000            -7.274613             0.060424
C            11.900000            -6.062178             0.068319
H            11.750000            -3.897114             0.006220
H            11.750000            -8.227241             0.092526
H            13.000000            -6.062178             0.064267
C            -2.800000             0.000000             0.079269
C            -3.500000            -1.212436             0.055421
C            -2.800000            -2.424871             0.037962
C            -1.400000            -2.424871             0.084898
H            -3.350000             0.952628             0.096869
C            -0.700000            -3.637307             0.007797
C             0.700000            -3.637307             0.066965
C             1.400000            -4.849742             0.043211
C             2.800000            -4.849742             0.062104
C             3.500000            -6.062178             0.058628
C             4.900000            -6.062178             0.014406
C             5.600000            -7.274613             0.073122
C             7.000000            -7.274613             0.037891
C             7.700000            -8.487049             0.032517
C             9.100000            -8.487049             0.001804
H             9.650000            -9.439677             0.059911
C            -4.900000            -1.212436             0.033457
C            -5.600000            -2.424871             0.024562
C            -4.900000            -3.637307             0.085759
C            -3.500000            -3.637307             0.073136
H            -5.450000            -0.259808             0.038031
C            -2.800000            -4.849742             0.046254
C            -1.400000            -4.849742             0.012748
C            -0.700000            -6.062178             0.061045
C             0.700000            -6.062178             0.061743
C             1.400000            -7.274613             0.053500
C             2.800000            -7.274613             0.094488
C             3.500000            -8.487049             0.049647
C             4.900000            -8.487049             0.074026
C             5.600000            -9.699485             0.074489
C             7.000000            -9.699485             0.099894
H             7.550000           -10.652112             0.048651
C            -7.000000            -2.424871             0.040060
C            -7.700000            -3.637307             0.011277
C            -7.000000            -4.849742             0.005382
C            -5.600000            -4.849742             0.035739
H            -7.550000            -1.472243             0.063018
H            -8.800000            -3.637307             0.054344
H            -7.550000            -5.802370             0.007654
C            -4.900000            -6.062178             0.094649
C            -3.500000            -6.062178             0.000926
H            -5.450000            -7.014806             0.063632
C            -2.800000            -7.274613             0.093475
C            -1.400000            -7.274613             0.051117
H            -3.350000            -8.227241             0.077067
C            -0.700000            -8.487049             0.054830
C             0.700000            -8.487049             0.023438
H            -1.250000            -9.439677             0.036749
C             1.400000            -9.699485             0.040166
C             2.800000            -9.699485             0.076956
H             0.850000           -10.652112             0.020775
C             3.500000           -10.911920             0.025865
C             4.900000           -10.911920             0.091128
H             2.950000           -11.864548             0.066708
H             5.450000           -11.864548             0.076748
