90
isomero_4_3
C             0.700000             1.212436             0.093699
C            -0.700000             1.212436             0.099558
C            -1.400000             0.000000             0.095166
C            -0.700000            -1.212436             0.049966
C             0.700000            -1.212436             0.063017
B             1.400000            -0.000000             0.001805
H             1.250000             2.165064             0.037216
H            -1.250000             2.165064             0.000914
N             2.800000             0.000000             0.054672
C             1.400000            -2.424871             0.042248
C             2.800000            -2.424871             0.077903
C             3.500000            -1.212436             0.076932
H             3.350000             0.952628             0.014827
C             4.900000            -1.212436             0.015038
C             3.500000            -3.637307             0.053642
C             4.900000            -3.637307             0.056146
C             5.600000            -2.424871             0.031215
H             5.450000            -0.259808             0.020457
C             7.000000            -2.424871             0.061925
C             5.600000            -4.849742             0.046405
C             7.000000            -4.849742             0.061533
C             7.700000            -3.637307             0.000616
H             7.550000            -1.472243             0.048415
C             9.100000            -3.637307             0.034393
C             7.700000            -6.062178             0.012286
C             9.100000            -6.062178             0.047995
C             9.800000            -4.849742             0.043652
H             9.650000            -2.684679             0.067800
C            11.200000            -4.849742             0.066185
C             9.800000            -7.274613             0.013286
C            11.200000            -7.274613             0.022556
C            11.900000            -6.062178             0.013397
H            11.750000            -3.897114             0.053667
H            11.750000            -8.227241             0.005232
H            13.000000            -6.062178             0.025572
C            -2.800000             0.000000             0.044575
C            -3.500000            -1.212436             0.020220
C            -2.800000            -2.424871             0.088664
C            -1.400000            -2.424871             0.057283
H            -3.350000             0.952628             0.060784
C            -0.700000            -3.637307             0.052496
C             0.700000            -3.637307             0.064299
C             1.400000            -4.849742             0.029117
C             2.800000            -4.849742             0.032506
C             3.500000            -6.062178             0.079937
C             4.900000            -6.062178             0.078192
C             5.600000            -7.274613             0.062999
C             7.000000            -7.274613             0.044903
C             7.700000            -8.487049             0.001182
C             9.100000            -8.487049             0.012233
H             9.650000            -9.439677             0.075683
C            -4.900000            -1.212436             0.044149
C            -5.600000            -2.424871             0.071143
C            -4.900000            -3.637307             0.095822
C            -3.500000            -3.637307             0.025553
H            -5.450000            -0.259808             0.011086
C            -2.800000            -4.849742             0.038993
C            -1.400000            -4.849742             0.024938
C            -0.700000            -6.062178             0.023342
C             0.700000            -6.062178             0.052128
C             1.400000            -7.274613             0.038137
C             2.800000            -7.274613             0.028099
C             3.500000            -8.487049             0.053307
C             4.900000            -8.487049             0.063765
C             5.600000            -9.699485             0.020157
C             7.000000            -9.699485             0.046255
H             7.550000           -10.652112             0.010546
C            -7.000000            -2.424871             0.035384
C            -7.700000            -3.637307             0.066812
C            -7.000000            -4.849742             0.047029
C            -5.600000            -4.849742             0.018728
H            -7.550000            -1.472243             0.002966
H            -8.800000            -3.637307             0.052434
H            -7.550000            -5.802370             0.038398
C            -4.900000            -6.062178             0.055253
C            -3.500000            -6.062178             0.094324
H            -5.450000            -7.014806             0.055876
C            -2.800000            -7.274613             0.010232
C            -1.400000            -7.274613             0.022331
H            -3.350000            -8.227241             0.076205
C            -0.700000            -8.487049             0.005509
C             0.700000            -8.487049             0.064811
H            -1.250000            -9.439677             0.016850
C             1.400000            -9.699485             0.051565
C             2.800000            -9.699485             0.028196
H             0.850000           -10.652112             0.064964
C             3.500000           -10.911920             0.038713
C             4.900000           -10.911920             0.041106
H             2.950000           -11.864548             0.006654
H             5.450000           -11.864548             0.037957
