90
isomero_20_29
C             0.700000             1.212436             0.096895
C            -0.700000             1.212436             0.091653
C            -1.400000             0.000000             0.043548
C            -0.700000            -1.212436             0.031922
C             0.700000            -1.212436             0.062043
C             1.400000            -0.000000             0.070195
H             1.250000             2.165064             0.013535
H            -1.250000             2.165064             0.098305
C             2.800000             0.000000             0.099405
C             1.400000            -2.424871             0.076246
C             2.800000            -2.424871             0.035296
C             3.500000            -1.212436             0.071501
H             3.350000             0.952628             0.078193
C             4.900000            -1.212436             0.082705
C             3.500000            -3.637307             0.053768
C             4.900000            -3.637307             0.018397
C             5.600000            -2.424871             0.026914
H             5.450000            -0.259808             0.054358
C             7.000000            -2.424871             0.064972
C             5.600000            -4.849742             0.058504
C             7.000000            -4.849742             0.068594
C             7.700000            -3.637307             0.080772
H             7.550000            -1.472243             0.060186
C             9.100000            -3.637307             0.098575
C             7.700000            -6.062178             0.019902
C             9.100000            -6.062178             0.085959
C             9.800000            -4.849742             0.041603
H             9.650000            -2.684679             0.039084
C            11.200000            -4.849742             0.044006
C             9.800000            -7.274613             0.065823
C            11.200000            -7.274613             0.050645
C            11.900000            -6.062178             0.001608
H            11.750000            -3.897114             0.065369
H            11.750000            -8.227241             0.045966
H            13.000000            -6.062178             0.026866
C            -2.800000             0.000000             0.096219
C            -3.500000            -1.212436             0.000682
C            -2.800000            -2.424871             0.015702
C            -1.400000            -2.424871             0.053294
H            -3.350000             0.952628             0.084997
C            -0.700000            -3.637307             0.016917
C             0.700000            -3.637307             0.008482
C             1.400000            -4.849742             0.021197
C             2.800000            -4.849742             0.020766
C             3.500000            -6.062178             0.039593
C             4.900000            -6.062178             0.053058
C             5.600000            -7.274613             0.005622
C             7.000000            -7.274613             0.079284
C             7.700000            -8.487049             0.049652
C             9.100000            -8.487049             0.036692
H             9.650000            -9.439677             0.062123
C            -4.900000            -1.212436             0.043906
C            -5.600000            -2.424871             0.070110
C            -4.900000            -3.637307             0.005622
C            -3.500000            -3.637307             0.019201
H            -5.450000            -0.259808             0.089730
C            -2.800000            -4.849742             0.056000
C            -1.400000            -4.849742             0.023780
C            -0.700000            -6.062178             0.055492
C             0.700000            -6.062178             0.096148
C             1.400000            -7.274613             0.023931
C             2.800000            -7.274613             0.001312
C             3.500000            -8.487049             0.043793
C             4.900000            -8.487049             0.003148
C             5.600000            -9.699485             0.054611
C             7.000000            -9.699485             0.060411
H             7.550000           -10.652112             0.037720
B            -7.000000            -2.424871             0.084492
N            -7.700000            -3.637307             0.073928
C            -7.000000            -4.849742             0.055858
C            -5.600000            -4.849742             0.025969
H            -7.550000            -1.472243             0.014274
H            -8.800000            -3.637307             0.005188
H            -7.550000            -5.802370             0.029309
C            -4.900000            -6.062178             0.039585
C            -3.500000            -6.062178             0.057134
H            -5.450000            -7.014806             0.098454
C            -2.800000            -7.274613             0.027418
C            -1.400000            -7.274613             0.099833
H            -3.350000            -8.227241             0.059601
C            -0.700000            -8.487049             0.048331
C             0.700000            -8.487049             0.097332
H            -1.250000            -9.439677             0.095203
C             1.400000            -9.699485             0.044118
C             2.800000            -9.699485             0.033263
H             0.850000           -10.652112             0.049682
C             3.500000           -10.911920             0.057565
C             4.900000           -10.911920             0.096348
H             2.950000           -11.864548             0.096742
H             5.450000           -11.864548             0.098333
