90
isomero_9_10
C             0.700000             1.212436             0.051031
C            -0.700000             1.212436             0.081995
C            -1.400000             0.000000             0.008644
N            -0.700000            -1.212436             0.020487
B             0.700000            -1.212436             0.075892
C             1.400000            -0.000000             0.087660
H             1.250000             2.165064             0.088702
H            -1.250000             2.165064             0.094524
C             2.800000             0.000000             0.080214
C             1.400000            -2.424871             0.087992
C             2.800000            -2.424871             0.014564
C             3.500000            -1.212436             0.097006
H             3.350000             0.952628             0.042396
C             4.900000            -1.212436             0.016014
C             3.500000            -3.637307             0.015103
C             4.900000            -3.637307             0.055230
C             5.600000            -2.424871             0.018779
H             5.450000            -0.259808             0.029795
C             7.000000            -2.424871             0.073027
C             5.600000            -4.849742             0.096099
C             7.000000            -4.849742             0.063157
C             7.700000            -3.637307             0.021053
H             7.550000            -1.472243             0.013189
C             9.100000            -3.637307             0.003674
C             7.700000            -6.062178             0.035061
C             9.100000            -6.062178             0.018507
C             9.800000            -4.849742             0.002643
H             9.650000            -2.684679             0.066361
C            11.200000            -4.849742             0.049074
C             9.800000            -7.274613             0.083443
C            11.200000            -7.274613             0.006092
C            11.900000            -6.062178             0.033812
H            11.750000            -3.897114             0.040970
H            11.750000            -8.227241             0.031382
H            13.000000            -6.062178             0.056141
C            -2.800000             0.000000             0.045454
C            -3.500000            -1.212436             0.075322
C            -2.800000            -2.424871             0.069162
C            -1.400000            -2.424871             0.071708
H            -3.350000             0.952628             0.048297
C            -0.700000            -3.637307             0.046859
C             0.700000            -3.637307             0.050158
C             1.400000            -4.849742             0.038080
C             2.800000            -4.849742             0.091077
C             3.500000            -6.062178             0.064691
C             4.900000            -6.062178             0.084819
C             5.600000            -7.274613             0.064300
C             7.000000            -7.274613             0.015295
C             7.700000            -8.487049             0.011565
C             9.100000            -8.487049             0.031308
H             9.650000            -9.439677             0.033512
C            -4.900000            -1.212436             0.072657
C            -5.600000            -2.424871             0.075090
C            -4.900000            -3.637307             0.045196
C            -3.500000            -3.637307             0.074004
H            -5.450000            -0.259808             0.081869
C            -2.800000            -4.849742             0.096086
C            -1.400000            -4.849742             0.062811
C            -0.700000            -6.062178             0.004836
C             0.700000            -6.062178             0.010762
C             1.400000            -7.274613             0.076642
C             2.800000            -7.274613             0.031195
C             3.500000            -8.487049             0.089647
C             4.900000            -8.487049             0.082507
C             5.600000            -9.699485             0.019845
C             7.000000            -9.699485             0.087929
H             7.550000           -10.652112             0.024712
C            -7.000000            -2.424871             0.081023
C            -7.700000            -3.637307             0.092896
C            -7.000000            -4.849742             0.016998
C            -5.600000            -4.849742             0.037685
H            -7.550000            -1.472243             0.064898
H            -8.800000            -3.637307             0.047504
H            -7.550000            -5.802370             0.010756
C            -4.900000            -6.062178             0.069181
C            -3.500000            -6.062178             0.028177
H            -5.450000            -7.014806             0.065865
C            -2.800000            -7.274613             0.083319
C            -1.400000            -7.274613             0.061096
H            -3.350000            -8.227241             0.006540
C            -0.700000            -8.487049             0.056750
C             0.700000            -8.487049             0.095470
H            -1.250000            -9.439677             0.034045
C             1.400000            -9.699485             0.082237
C             2.800000            -9.699485             0.007685
H             0.850000           -10.652112             0.056277
C             3.500000           -10.911920             0.094928
C             4.900000           -10.911920             0.050021
H             2.950000           -11.864548             0.034473
H             5.450000           -11.864548             0.050451
