90
isomero_34_35
C             0.700000             1.212436             0.067203
C            -0.700000             1.212436             0.020872
C            -1.400000             0.000000             0.053142
C            -0.700000            -1.212436             0.051801
C             0.700000            -1.212436             0.055317
C             1.400000            -0.000000             0.013947
H             1.250000             2.165064             0.088271
H            -1.250000             2.165064             0.012333
C             2.800000             0.000000             0.016586
C             1.400000            -2.424871             0.041652
C             2.800000            -2.424871             0.049848
C             3.500000            -1.212436             0.084166
H             3.350000             0.952628             0.094644
C             4.900000            -1.212436             0.076050
C             3.500000            -3.637307             0.056413
C             4.900000            -3.637307             0.056615
C             5.600000            -2.424871             0.048710
H             5.450000            -0.259808             0.037756
C             7.000000            -2.424871             0.008140
C             5.600000            -4.849742             0.059546
C             7.000000            -4.849742             0.057337
C             7.700000            -3.637307             0.020021
H             7.550000            -1.472243             0.062243
C             9.100000            -3.637307             0.033332
C             7.700000            -6.062178             0.033634
C             9.100000            -6.062178             0.039353
C             9.800000            -4.849742             0.062748
H             9.650000            -2.684679             0.044146
C            11.200000            -4.849742             0.019779
C             9.800000            -7.274613             0.025303
C            11.200000            -7.274613             0.079058
C            11.900000            -6.062178             0.009022
H            11.750000            -3.897114             0.005636
H            11.750000            -8.227241             0.035218
H            13.000000            -6.062178             0.008709
C            -2.800000             0.000000             0.051104
C            -3.500000            -1.212436             0.082303
C            -2.800000            -2.424871             0.022344
C            -1.400000            -2.424871             0.059826
H            -3.350000             0.952628             0.008537
C            -0.700000            -3.637307             0.004034
C             0.700000            -3.637307             0.094393
N             1.400000            -4.849742             0.045553
B             2.800000            -4.849742             0.095389
C             3.500000            -6.062178             0.081030
C             4.900000            -6.062178             0.046780
C             5.600000            -7.274613             0.082953
C             7.000000            -7.274613             0.022011
C             7.700000            -8.487049             0.094050
C             9.100000            -8.487049             0.029610
H             9.650000            -9.439677             0.092016
C            -4.900000            -1.212436             0.030778
C            -5.600000            -2.424871             0.075412
C            -4.900000            -3.637307             0.034626
C            -3.500000            -3.637307             0.021753
H            -5.450000            -0.259808             0.000249
C            -2.800000            -4.849742             0.099969
C            -1.400000            -4.849742             0.041596
C            -0.700000            -6.062178             0.065108
C             0.700000            -6.062178             0.073228
C             1.400000            -7.274613             0.074104
C             2.800000            -7.274613             0.027454
C             3.500000            -8.487049             0.014770
C             4.900000            -8.487049             0.025114
C             5.600000            -9.699485             0.054875
C             7.000000            -9.699485             0.095117
H             7.550000           -10.652112             0.040712
C            -7.000000            -2.424871             0.008897
C            -7.700000            -3.637307             0.027769
C            -7.000000            -4.849742             0.033537
C            -5.600000            -4.849742             0.056383
H            -7.550000            -1.472243             0.061696
H            -8.800000            -3.637307             0.089325
H            -7.550000            -5.802370             0.017322
C            -4.900000            -6.062178             0.080310
C            -3.500000            -6.062178             0.007497
H            -5.450000            -7.014806             0.003528
C            -2.800000            -7.274613             0.065951
C            -1.400000            -7.274613             0.030427
H            -3.350000            -8.227241             0.064911
C            -0.700000            -8.487049             0.044129
C             0.700000            -8.487049             0.057393
H            -1.250000            -9.439677             0.033873
C             1.400000            -9.699485             0.026482
C             2.800000            -9.699485             0.089468
H             0.850000           -10.652112             0.060857
C             3.500000           -10.911920             0.041637
C             4.900000           -10.911920             0.096087
H             2.950000           -11.864548             0.028808
H             5.450000           -11.864548             0.089254
