90
isomero_10_5
C             0.700000             1.212436             0.069525
C            -0.700000             1.212436             0.037018
N            -1.400000             0.000000             0.037921
B            -0.700000            -1.212436             0.034925
C             0.700000            -1.212436             0.076912
C             1.400000            -0.000000             0.010980
H             1.250000             2.165064             0.066718
H            -1.250000             2.165064             0.090707
C             2.800000             0.000000             0.079692
C             1.400000            -2.424871             0.020739
C             2.800000            -2.424871             0.056377
C             3.500000            -1.212436             0.059956
H             3.350000             0.952628             0.054106
C             4.900000            -1.212436             0.033752
C             3.500000            -3.637307             0.014925
C             4.900000            -3.637307             0.026521
C             5.600000            -2.424871             0.066917
H             5.450000            -0.259808             0.054394
C             7.000000            -2.424871             0.031629
C             5.600000            -4.849742             0.084776
C             7.000000            -4.849742             0.039001
C             7.700000            -3.637307             0.021812
H             7.550000            -1.472243             0.008763
C             9.100000            -3.637307             0.012131
C             7.700000            -6.062178             0.027232
C             9.100000            -6.062178             0.083054
C             9.800000            -4.849742             0.066153
H             9.650000            -2.684679             0.094132
C            11.200000            -4.849742             0.094970
C             9.800000            -7.274613             0.043309
C            11.200000            -7.274613             0.051503
C            11.900000            -6.062178             0.005728
H            11.750000            -3.897114             0.087015
H            11.750000            -8.227241             0.032185
H            13.000000            -6.062178             0.049411
C            -2.800000             0.000000             0.060206
C            -3.500000            -1.212436             0.059597
C            -2.800000            -2.424871             0.030326
C            -1.400000            -2.424871             0.071653
H            -3.350000             0.952628             0.077821
C            -0.700000            -3.637307             0.098989
C             0.700000            -3.637307             0.048521
C             1.400000            -4.849742             0.053267
C             2.800000            -4.849742             0.067947
C             3.500000            -6.062178             0.008350
C             4.900000            -6.062178             0.010814
C             5.600000            -7.274613             0.042580
C             7.000000            -7.274613             0.031600
C             7.700000            -8.487049             0.085860
C             9.100000            -8.487049             0.052010
H             9.650000            -9.439677             0.060143
C            -4.900000            -1.212436             0.020392
C            -5.600000            -2.424871             0.076166
C            -4.900000            -3.637307             0.025711
C            -3.500000            -3.637307             0.068771
H            -5.450000            -0.259808             0.063330
C            -2.800000            -4.849742             0.053817
C            -1.400000            -4.849742             0.073658
C            -0.700000            -6.062178             0.092045
C             0.700000            -6.062178             0.089873
C             1.400000            -7.274613             0.070078
C             2.800000            -7.274613             0.073282
C             3.500000            -8.487049             0.072050
C             4.900000            -8.487049             0.066506
C             5.600000            -9.699485             0.032365
C             7.000000            -9.699485             0.051436
H             7.550000           -10.652112             0.043581
C            -7.000000            -2.424871             0.006239
C            -7.700000            -3.637307             0.075008
C            -7.000000            -4.849742             0.007739
C            -5.600000            -4.849742             0.016117
H            -7.550000            -1.472243             0.081340
H            -8.800000            -3.637307             0.084187
H            -7.550000            -5.802370             0.023184
C            -4.900000            -6.062178             0.012958
C            -3.500000            -6.062178             0.008513
H            -5.450000            -7.014806             0.020315
C            -2.800000            -7.274613             0.031513
C            -1.400000            -7.274613             0.002535
H            -3.350000            -8.227241             0.076893
C            -0.700000            -8.487049             0.027050
C             0.700000            -8.487049             0.029376
H            -1.250000            -9.439677             0.028097
C             1.400000            -9.699485             0.055501
C             2.800000            -9.699485             0.048529
H             0.850000           -10.652112             0.074865
C             3.500000           -10.911920             0.095713
C             4.900000           -10.911920             0.011980
H             2.950000           -11.864548             0.079422
H             5.450000           -11.864548             0.003781
