90
isomero_13_22
C             0.700000             1.212436             0.019777
C            -0.700000             1.212436             0.003966
C            -1.400000             0.000000             0.057620
C            -0.700000            -1.212436             0.023338
C             0.700000            -1.212436             0.043204
C             1.400000            -0.000000             0.007922
H             1.250000             2.165064             0.088360
H            -1.250000             2.165064             0.046974
C             2.800000             0.000000             0.054072
C             1.400000            -2.424871             0.011593
C             2.800000            -2.424871             0.081266
C             3.500000            -1.212436             0.047269
H             3.350000             0.952628             0.062652
C             4.900000            -1.212436             0.057333
C             3.500000            -3.637307             0.053837
C             4.900000            -3.637307             0.061159
C             5.600000            -2.424871             0.015824
H             5.450000            -0.259808             0.079051
B             7.000000            -2.424871             0.014590
C             5.600000            -4.849742             0.061928
C             7.000000            -4.849742             0.032324
N             7.700000            -3.637307             0.069519
H             7.550000            -1.472243             0.061162
C             9.100000            -3.637307             0.035862
C             7.700000            -6.062178             0.015622
C             9.100000            -6.062178             0.025767
C             9.800000            -4.849742             0.046864
H             9.650000            -2.684679             0.023231
C            11.200000            -4.849742             0.005579
C             9.800000            -7.274613             0.052392
C            11.200000            -7.274613             0.091980
C            11.900000            -6.062178             0.045565
H            11.750000            -3.897114             0.046933
H            11.750000            -8.227241             0.038974
H            13.000000            -6.062178             0.098445
C            -2.800000             0.000000             0.005980
C            -3.500000            -1.212436             0.078705
C            -2.800000            -2.424871             0.038208
C            -1.400000            -2.424871             0.060712
H            -3.350000             0.952628             0.054978
C            -0.700000            -3.637307             0.053606
C             0.700000            -3.637307             0.031034
C             1.400000            -4.849742             0.089056
C             2.800000            -4.849742             0.019325
C             3.500000            -6.062178             0.020293
C             4.900000            -6.062178             0.073410
C             5.600000            -7.274613             0.015697
C             7.000000            -7.274613             0.077898
C             7.700000            -8.487049             0.003186
C             9.100000            -8.487049             0.042212
H             9.650000            -9.439677             0.015420
C            -4.900000            -1.212436             0.050767
C            -5.600000            -2.424871             0.017527
C            -4.900000            -3.637307             0.040159
C            -3.500000            -3.637307             0.093621
H            -5.450000            -0.259808             0.029137
C            -2.800000            -4.849742             0.014394
C            -1.400000            -4.849742             0.091331
C            -0.700000            -6.062178             0.092450
C             0.700000            -6.062178             0.017669
C             1.400000            -7.274613             0.003793
C             2.800000            -7.274613             0.038419
C             3.500000            -8.487049             0.076103
C             4.900000            -8.487049             0.050908
C             5.600000            -9.699485             0.049860
C             7.000000            -9.699485             0.065962
H             7.550000           -10.652112             0.015659
C            -7.000000            -2.424871             0.070769
C            -7.700000            -3.637307             0.056621
C            -7.000000            -4.849742             0.083444
C            -5.600000            -4.849742             0.079389
H            -7.550000            -1.472243             0.002514
H            -8.800000            -3.637307             0.044744
H            -7.550000            -5.802370             0.029631
C            -4.900000            -6.062178             0.004239
C            -3.500000            -6.062178             0.080696
H            -5.450000            -7.014806             0.067856
C            -2.800000            -7.274613             0.047197
C            -1.400000            -7.274613             0.022197
H            -3.350000            -8.227241             0.029961
C            -0.700000            -8.487049             0.053697
C             0.700000            -8.487049             0.025411
H            -1.250000            -9.439677             0.025299
C             1.400000            -9.699485             0.075210
C             2.800000            -9.699485             0.025907
H             0.850000           -10.652112             0.001175
C             3.500000           -10.911920             0.045843
C             4.900000           -10.911920             0.022404
H             2.950000           -11.864548             0.085701
H             5.450000           -11.864548             0.064287
