90
isomero_34_24
C             0.700000             1.212436             0.030899
C            -0.700000             1.212436             0.068815
C            -1.400000             0.000000             0.035326
C            -0.700000            -1.212436             0.013620
C             0.700000            -1.212436             0.016120
C             1.400000            -0.000000             0.070160
H             1.250000             2.165064             0.096310
H            -1.250000             2.165064             0.084892
C             2.800000             0.000000             0.035570
C             1.400000            -2.424871             0.060403
C             2.800000            -2.424871             0.086321
C             3.500000            -1.212436             0.082052
H             3.350000             0.952628             0.085673
C             4.900000            -1.212436             0.047922
N             3.500000            -3.637307             0.069325
C             4.900000            -3.637307             0.018419
C             5.600000            -2.424871             0.016004
H             5.450000            -0.259808             0.099493
C             7.000000            -2.424871             0.006612
C             5.600000            -4.849742             0.099261
C             7.000000            -4.849742             0.021767
C             7.700000            -3.637307             0.088556
H             7.550000            -1.472243             0.033722
C             9.100000            -3.637307             0.031645
C             7.700000            -6.062178             0.031046
C             9.100000            -6.062178             0.071311
C             9.800000            -4.849742             0.066368
H             9.650000            -2.684679             0.071797
C            11.200000            -4.849742             0.010464
C             9.800000            -7.274613             0.070048
C            11.200000            -7.274613             0.008059
C            11.900000            -6.062178             0.089120
H            11.750000            -3.897114             0.069388
H            11.750000            -8.227241             0.043647
H            13.000000            -6.062178             0.065699
C            -2.800000             0.000000             0.094809
C            -3.500000            -1.212436             0.077105
C            -2.800000            -2.424871             0.088335
C            -1.400000            -2.424871             0.034297
H            -3.350000             0.952628             0.031266
C            -0.700000            -3.637307             0.050769
C             0.700000            -3.637307             0.051252
C             1.400000            -4.849742             0.058185
B             2.800000            -4.849742             0.030279
C             3.500000            -6.062178             0.024072
C             4.900000            -6.062178             0.071644
C             5.600000            -7.274613             0.076990
C             7.000000            -7.274613             0.079124
C             7.700000            -8.487049             0.073001
C             9.100000            -8.487049             0.004846
H             9.650000            -9.439677             0.028632
C            -4.900000            -1.212436             0.064846
C            -5.600000            -2.424871             0.055197
C            -4.900000            -3.637307             0.070477
C            -3.500000            -3.637307             0.094922
H            -5.450000            -0.259808             0.040367
C            -2.800000            -4.849742             0.087476
C            -1.400000            -4.849742             0.006734
C            -0.700000            -6.062178             0.080387
C             0.700000            -6.062178             0.033741
C             1.400000            -7.274613             0.077543
C             2.800000            -7.274613             0.006199
C             3.500000            -8.487049             0.057537
C             4.900000            -8.487049             0.055077
C             5.600000            -9.699485             0.079944
C             7.000000            -9.699485             0.037844
H             7.550000           -10.652112             0.053425
C            -7.000000            -2.424871             0.095008
C            -7.700000            -3.637307             0.012111
C            -7.000000            -4.849742             0.036126
C            -5.600000            -4.849742             0.014415
H            -7.550000            -1.472243             0.058873
H            -8.800000            -3.637307             0.054591
H            -7.550000            -5.802370             0.033601
C            -4.900000            -6.062178             0.029456
C            -3.500000            -6.062178             0.057017
H            -5.450000            -7.014806             0.080239
C            -2.800000            -7.274613             0.039823
C            -1.400000            -7.274613             0.068867
H            -3.350000            -8.227241             0.090872
C            -0.700000            -8.487049             0.011375
C             0.700000            -8.487049             0.011437
H            -1.250000            -9.439677             0.062827
C             1.400000            -9.699485             0.012252
C             2.800000            -9.699485             0.069622
H             0.850000           -10.652112             0.010189
C             3.500000           -10.911920             0.049147
C             4.900000           -10.911920             0.041030
H             2.950000           -11.864548             0.090081
H             5.450000           -11.864548             0.051633
