90
isomero_21_31
C             0.700000             1.212436             0.044474
C            -0.700000             1.212436             0.039022
C            -1.400000             0.000000             0.071204
C            -0.700000            -1.212436             0.044651
C             0.700000            -1.212436             0.038398
C             1.400000            -0.000000             0.062275
H             1.250000             2.165064             0.002978
H            -1.250000             2.165064             0.035782
C             2.800000             0.000000             0.044743
C             1.400000            -2.424871             0.078113
C             2.800000            -2.424871             0.032275
C             3.500000            -1.212436             0.096723
H             3.350000             0.952628             0.038132
C             4.900000            -1.212436             0.001284
C             3.500000            -3.637307             0.044449
C             4.900000            -3.637307             0.061477
C             5.600000            -2.424871             0.009042
H             5.450000            -0.259808             0.022622
C             7.000000            -2.424871             0.086693
C             5.600000            -4.849742             0.039592
C             7.000000            -4.849742             0.021546
C             7.700000            -3.637307             0.059835
H             7.550000            -1.472243             0.063088
B             9.100000            -3.637307             0.089930
C             7.700000            -6.062178             0.064478
C             9.100000            -6.062178             0.049061
N             9.800000            -4.849742             0.011421
H             9.650000            -2.684679             0.013068
C            11.200000            -4.849742             0.008201
C             9.800000            -7.274613             0.091420
C            11.200000            -7.274613             0.069416
C            11.900000            -6.062178             0.054050
H            11.750000            -3.897114             0.060178
H            11.750000            -8.227241             0.020870
H            13.000000            -6.062178             0.089749
C            -2.800000             0.000000             0.056068
C            -3.500000            -1.212436             0.051007
C            -2.800000            -2.424871             0.011145
C            -1.400000            -2.424871             0.093488
H            -3.350000             0.952628             0.008724
C            -0.700000            -3.637307             0.018151
C             0.700000            -3.637307             0.060805
C             1.400000            -4.849742             0.009055
C             2.800000            -4.849742             0.019279
C             3.500000            -6.062178             0.005512
C             4.900000            -6.062178             0.085374
C             5.600000            -7.274613             0.080957
C             7.000000            -7.274613             0.077532
C             7.700000            -8.487049             0.046679
C             9.100000            -8.487049             0.069283
H             9.650000            -9.439677             0.025472
C            -4.900000            -1.212436             0.069962
C            -5.600000            -2.424871             0.087666
C            -4.900000            -3.637307             0.063380
C            -3.500000            -3.637307             0.041268
H            -5.450000            -0.259808             0.046151
C            -2.800000            -4.849742             0.001876
C            -1.400000            -4.849742             0.005924
C            -0.700000            -6.062178             0.010402
C             0.700000            -6.062178             0.068202
C             1.400000            -7.274613             0.076822
C             2.800000            -7.274613             0.019458
C             3.500000            -8.487049             0.005186
C             4.900000            -8.487049             0.056473
C             5.600000            -9.699485             0.058936
C             7.000000            -9.699485             0.092991
H             7.550000           -10.652112             0.009287
C            -7.000000            -2.424871             0.023580
C            -7.700000            -3.637307             0.090967
C            -7.000000            -4.849742             0.098723
C            -5.600000            -4.849742             0.065587
H            -7.550000            -1.472243             0.042735
H            -8.800000            -3.637307             0.084657
H            -7.550000            -5.802370             0.037382
C            -4.900000            -6.062178             0.026272
C            -3.500000            -6.062178             0.012153
H            -5.450000            -7.014806             0.099510
C            -2.800000            -7.274613             0.032231
C            -1.400000            -7.274613             0.061256
H            -3.350000            -8.227241             0.031533
C            -0.700000            -8.487049             0.060035
C             0.700000            -8.487049             0.052494
H            -1.250000            -9.439677             0.044601
C             1.400000            -9.699485             0.012000
C             2.800000            -9.699485             0.085379
H             0.850000           -10.652112             0.042117
C             3.500000           -10.911920             0.004859
C             4.900000           -10.911920             0.057182
H             2.950000           -11.864548             0.010229
H             5.450000           -11.864548             0.015601
