90
isomero_14_7
C             0.700000             1.212436             0.013794
C            -0.700000             1.212436             0.079000
C            -1.400000             0.000000             0.056946
C            -0.700000            -1.212436             0.012221
C             0.700000            -1.212436             0.058140
C             1.400000            -0.000000             0.028396
H             1.250000             2.165064             0.092963
H            -1.250000             2.165064             0.037113
C             2.800000             0.000000             0.003110
C             1.400000            -2.424871             0.090977
C             2.800000            -2.424871             0.016633
C             3.500000            -1.212436             0.042031
H             3.350000             0.952628             0.035133
N             4.900000            -1.212436             0.050939
C             3.500000            -3.637307             0.002861
C             4.900000            -3.637307             0.022122
B             5.600000            -2.424871             0.068739
H             5.450000            -0.259808             0.068579
C             7.000000            -2.424871             0.050848
C             5.600000            -4.849742             0.002309
C             7.000000            -4.849742             0.071001
C             7.700000            -3.637307             0.009761
H             7.550000            -1.472243             0.022156
C             9.100000            -3.637307             0.053392
C             7.700000            -6.062178             0.061938
C             9.100000            -6.062178             0.043334
C             9.800000            -4.849742             0.054214
H             9.650000            -2.684679             0.090997
C            11.200000            -4.849742             0.007400
C             9.800000            -7.274613             0.017869
C            11.200000            -7.274613             0.077654
C            11.900000            -6.062178             0.063575
H            11.750000            -3.897114             0.014211
H            11.750000            -8.227241             0.062607
H            13.000000            -6.062178             0.009357
C            -2.800000             0.000000             0.077524
C            -3.500000            -1.212436             0.079137
C            -2.800000            -2.424871             0.027862
C            -1.400000            -2.424871             0.057438
H            -3.350000             0.952628             0.092660
C            -0.700000            -3.637307             0.034119
C             0.700000            -3.637307             0.056875
C             1.400000            -4.849742             0.074473
C             2.800000            -4.849742             0.081425
C             3.500000            -6.062178             0.090536
C             4.900000            -6.062178             0.088390
C             5.600000            -7.274613             0.079400
C             7.000000            -7.274613             0.096462
C             7.700000            -8.487049             0.096269
C             9.100000            -8.487049             0.028986
H             9.650000            -9.439677             0.088272
C            -4.900000            -1.212436             0.013996
C            -5.600000            -2.424871             0.078590
C            -4.900000            -3.637307             0.006264
C            -3.500000            -3.637307             0.000020
H            -5.450000            -0.259808             0.030605
C            -2.800000            -4.849742             0.023535
C            -1.400000            -4.849742             0.046431
C            -0.700000            -6.062178             0.027006
C             0.700000            -6.062178             0.006398
C             1.400000            -7.274613             0.083068
C             2.800000            -7.274613             0.089356
C             3.500000            -8.487049             0.008713
C             4.900000            -8.487049             0.077438
C             5.600000            -9.699485             0.080433
C             7.000000            -9.699485             0.094556
H             7.550000           -10.652112             0.016960
C            -7.000000            -2.424871             0.090960
C            -7.700000            -3.637307             0.089192
C            -7.000000            -4.849742             0.070736
C            -5.600000            -4.849742             0.045130
H            -7.550000            -1.472243             0.000066
H            -8.800000            -3.637307             0.004767
H            -7.550000            -5.802370             0.021338
C            -4.900000            -6.062178             0.047594
C            -3.500000            -6.062178             0.004799
H            -5.450000            -7.014806             0.069674
C            -2.800000            -7.274613             0.080333
C            -1.400000            -7.274613             0.046915
H            -3.350000            -8.227241             0.039795
C            -0.700000            -8.487049             0.059622
C             0.700000            -8.487049             0.060977
H            -1.250000            -9.439677             0.014128
C             1.400000            -9.699485             0.076793
C             2.800000            -9.699485             0.079194
H             0.850000           -10.652112             0.003808
C             3.500000           -10.911920             0.075235
C             4.900000           -10.911920             0.038512
H             2.950000           -11.864548             0.041805
H             5.450000           -11.864548             0.036533
