90
isomero_33_32
C             0.700000             1.212436             0.007820
C            -0.700000             1.212436             0.095004
C            -1.400000             0.000000             0.012206
C            -0.700000            -1.212436             0.037634
C             0.700000            -1.212436             0.092097
C             1.400000            -0.000000             0.093886
H             1.250000             2.165064             0.071321
H            -1.250000             2.165064             0.048683
C             2.800000             0.000000             0.035493
C             1.400000            -2.424871             0.092363
C             2.800000            -2.424871             0.059640
C             3.500000            -1.212436             0.028820
H             3.350000             0.952628             0.059504
C             4.900000            -1.212436             0.056091
C             3.500000            -3.637307             0.050026
C             4.900000            -3.637307             0.046158
C             5.600000            -2.424871             0.051296
H             5.450000            -0.259808             0.046961
C             7.000000            -2.424871             0.056315
B             5.600000            -4.849742             0.066186
N             7.000000            -4.849742             0.046322
C             7.700000            -3.637307             0.037147
H             7.550000            -1.472243             0.016974
C             9.100000            -3.637307             0.092156
C             7.700000            -6.062178             0.019845
C             9.100000            -6.062178             0.027492
C             9.800000            -4.849742             0.023938
H             9.650000            -2.684679             0.078477
C            11.200000            -4.849742             0.056281
C             9.800000            -7.274613             0.095418
C            11.200000            -7.274613             0.037163
C            11.900000            -6.062178             0.005450
H            11.750000            -3.897114             0.062538
H            11.750000            -8.227241             0.046562
H            13.000000            -6.062178             0.074576
C            -2.800000             0.000000             0.090121
C            -3.500000            -1.212436             0.083980
C            -2.800000            -2.424871             0.033233
C            -1.400000            -2.424871             0.029808
H            -3.350000             0.952628             0.022672
C            -0.700000            -3.637307             0.001796
C             0.700000            -3.637307             0.089708
C             1.400000            -4.849742             0.072775
C             2.800000            -4.849742             0.027705
C             3.500000            -6.062178             0.068939
C             4.900000            -6.062178             0.010367
C             5.600000            -7.274613             0.094878
C             7.000000            -7.274613             0.029446
C             7.700000            -8.487049             0.030139
C             9.100000            -8.487049             0.050170
H             9.650000            -9.439677             0.086701
C            -4.900000            -1.212436             0.097696
C            -5.600000            -2.424871             0.021760
C            -4.900000            -3.637307             0.099668
C            -3.500000            -3.637307             0.067665
H            -5.450000            -0.259808             0.028794
C            -2.800000            -4.849742             0.092696
C            -1.400000            -4.849742             0.003028
C            -0.700000            -6.062178             0.009374
C             0.700000            -6.062178             0.016507
C             1.400000            -7.274613             0.052397
C             2.800000            -7.274613             0.055715
C             3.500000            -8.487049             0.099151
C             4.900000            -8.487049             0.038923
C             5.600000            -9.699485             0.032397
C             7.000000            -9.699485             0.015351
H             7.550000           -10.652112             0.015477
C            -7.000000            -2.424871             0.035809
C            -7.700000            -3.637307             0.071119
C            -7.000000            -4.849742             0.022408
C            -5.600000            -4.849742             0.013718
H            -7.550000            -1.472243             0.074620
H            -8.800000            -3.637307             0.092556
H            -7.550000            -5.802370             0.099497
C            -4.900000            -6.062178             0.057406
C            -3.500000            -6.062178             0.064104
H            -5.450000            -7.014806             0.055841
C            -2.800000            -7.274613             0.089944
C            -1.400000            -7.274613             0.002048
H            -3.350000            -8.227241             0.035829
C            -0.700000            -8.487049             0.014533
C             0.700000            -8.487049             0.043242
H            -1.250000            -9.439677             0.063996
C             1.400000            -9.699485             0.000177
C             2.800000            -9.699485             0.050789
H             0.850000           -10.652112             0.038497
C             3.500000           -10.911920             0.044676
C             4.900000           -10.911920             0.012583
H             2.950000           -11.864548             0.025035
H             5.450000           -11.864548             0.049848
