90
isomero_33_23
C             0.700000             1.212436             0.024136
C            -0.700000             1.212436             0.057776
C            -1.400000             0.000000             0.085104
C            -0.700000            -1.212436             0.011224
C             0.700000            -1.212436             0.080850
C             1.400000            -0.000000             0.072887
H             1.250000             2.165064             0.015713
H            -1.250000             2.165064             0.065543
C             2.800000             0.000000             0.005730
C             1.400000            -2.424871             0.030849
C             2.800000            -2.424871             0.035420
C             3.500000            -1.212436             0.003027
H             3.350000             0.952628             0.039522
C             4.900000            -1.212436             0.014771
C             3.500000            -3.637307             0.016050
N             4.900000            -3.637307             0.090621
C             5.600000            -2.424871             0.074786
H             5.450000            -0.259808             0.051294
C             7.000000            -2.424871             0.095036
B             5.600000            -4.849742             0.072337
C             7.000000            -4.849742             0.016431
C             7.700000            -3.637307             0.018532
H             7.550000            -1.472243             0.020279
C             9.100000            -3.637307             0.004128
C             7.700000            -6.062178             0.093375
C             9.100000            -6.062178             0.009401
C             9.800000            -4.849742             0.096238
H             9.650000            -2.684679             0.000102
C            11.200000            -4.849742             0.060620
C             9.800000            -7.274613             0.096479
C            11.200000            -7.274613             0.068960
C            11.900000            -6.062178             0.094059
H            11.750000            -3.897114             0.049680
H            11.750000            -8.227241             0.060373
H            13.000000            -6.062178             0.075061
C            -2.800000             0.000000             0.049012
C            -3.500000            -1.212436             0.002917
C            -2.800000            -2.424871             0.006517
C            -1.400000            -2.424871             0.088810
H            -3.350000             0.952628             0.035982
C            -0.700000            -3.637307             0.037195
C             0.700000            -3.637307             0.012477
C             1.400000            -4.849742             0.075825
C             2.800000            -4.849742             0.016080
C             3.500000            -6.062178             0.034585
C             4.900000            -6.062178             0.025739
C             5.600000            -7.274613             0.048182
C             7.000000            -7.274613             0.064369
C             7.700000            -8.487049             0.052805
C             9.100000            -8.487049             0.093127
H             9.650000            -9.439677             0.026426
C            -4.900000            -1.212436             0.061351
C            -5.600000            -2.424871             0.072605
C            -4.900000            -3.637307             0.020739
C            -3.500000            -3.637307             0.039733
H            -5.450000            -0.259808             0.082291
C            -2.800000            -4.849742             0.061192
C            -1.400000            -4.849742             0.050488
C            -0.700000            -6.062178             0.054367
C             0.700000            -6.062178             0.049222
C             1.400000            -7.274613             0.084042
C             2.800000            -7.274613             0.042763
C             3.500000            -8.487049             0.059132
C             4.900000            -8.487049             0.094594
C             5.600000            -9.699485             0.032248
C             7.000000            -9.699485             0.012576
H             7.550000           -10.652112             0.061349
C            -7.000000            -2.424871             0.063407
C            -7.700000            -3.637307             0.039143
C            -7.000000            -4.849742             0.018570
C            -5.600000            -4.849742             0.017573
H            -7.550000            -1.472243             0.081312
H            -8.800000            -3.637307             0.077763
H            -7.550000            -5.802370             0.060614
C            -4.900000            -6.062178             0.030989
C            -3.500000            -6.062178             0.061493
H            -5.450000            -7.014806             0.045189
C            -2.800000            -7.274613             0.060382
C            -1.400000            -7.274613             0.063219
H            -3.350000            -8.227241             0.074848
C            -0.700000            -8.487049             0.004484
C             0.700000            -8.487049             0.045351
H            -1.250000            -9.439677             0.095865
C             1.400000            -9.699485             0.040432
C             2.800000            -9.699485             0.048866
H             0.850000           -10.652112             0.041862
C             3.500000           -10.911920             0.044049
C             4.900000           -10.911920             0.092479
H             2.950000           -11.864548             0.030775
H             5.450000           -11.864548             0.055776
