90
isomero_17_18
C             0.700000             1.212436             0.077704
C            -0.700000             1.212436             0.068400
C            -1.400000             0.000000             0.042134
C            -0.700000            -1.212436             0.095348
C             0.700000            -1.212436             0.048764
C             1.400000            -0.000000             0.078840
H             1.250000             2.165064             0.047906
H            -1.250000             2.165064             0.041349
C             2.800000             0.000000             0.012505
C             1.400000            -2.424871             0.040626
C             2.800000            -2.424871             0.061792
C             3.500000            -1.212436             0.060035
H             3.350000             0.952628             0.091308
C             4.900000            -1.212436             0.080509
C             3.500000            -3.637307             0.033138
C             4.900000            -3.637307             0.058631
C             5.600000            -2.424871             0.066888
H             5.450000            -0.259808             0.007425
C             7.000000            -2.424871             0.058515
C             5.600000            -4.849742             0.048751
C             7.000000            -4.849742             0.022391
C             7.700000            -3.637307             0.091228
H             7.550000            -1.472243             0.002621
C             9.100000            -3.637307             0.040248
C             7.700000            -6.062178             0.090511
C             9.100000            -6.062178             0.015101
C             9.800000            -4.849742             0.033317
H             9.650000            -2.684679             0.043854
C            11.200000            -4.849742             0.002439
C             9.800000            -7.274613             0.020587
C            11.200000            -7.274613             0.097986
C            11.900000            -6.062178             0.011192
H            11.750000            -3.897114             0.054382
H            11.750000            -8.227241             0.055862
H            13.000000            -6.062178             0.056528
C            -2.800000             0.000000             0.090466
C            -3.500000            -1.212436             0.036489
N            -2.800000            -2.424871             0.092653
B            -1.400000            -2.424871             0.041719
H            -3.350000             0.952628             0.075667
C            -0.700000            -3.637307             0.098797
C             0.700000            -3.637307             0.043152
C             1.400000            -4.849742             0.059757
C             2.800000            -4.849742             0.013147
C             3.500000            -6.062178             0.097663
C             4.900000            -6.062178             0.091943
C             5.600000            -7.274613             0.001326
C             7.000000            -7.274613             0.062552
C             7.700000            -8.487049             0.095946
C             9.100000            -8.487049             0.089774
H             9.650000            -9.439677             0.078022
C            -4.900000            -1.212436             0.042719
C            -5.600000            -2.424871             0.071438
C            -4.900000            -3.637307             0.007517
C            -3.500000            -3.637307             0.059802
H            -5.450000            -0.259808             0.063191
C            -2.800000            -4.849742             0.038199
C            -1.400000            -4.849742             0.049840
C            -0.700000            -6.062178             0.039892
C             0.700000            -6.062178             0.000125
C             1.400000            -7.274613             0.074351
C             2.800000            -7.274613             0.037103
C             3.500000            -8.487049             0.069191
C             4.900000            -8.487049             0.015351
C             5.600000            -9.699485             0.010988
C             7.000000            -9.699485             0.005158
H             7.550000           -10.652112             0.053047
C            -7.000000            -2.424871             0.014611
C            -7.700000            -3.637307             0.036284
C            -7.000000            -4.849742             0.084796
C            -5.600000            -4.849742             0.013549
H            -7.550000            -1.472243             0.020607
H            -8.800000            -3.637307             0.021339
H            -7.550000            -5.802370             0.024658
C            -4.900000            -6.062178             0.056811
C            -3.500000            -6.062178             0.084580
H            -5.450000            -7.014806             0.055650
C            -2.800000            -7.274613             0.024655
C            -1.400000            -7.274613             0.020326
H            -3.350000            -8.227241             0.058795
C            -0.700000            -8.487049             0.053718
C             0.700000            -8.487049             0.013967
H            -1.250000            -9.439677             0.004615
C             1.400000            -9.699485             0.048354
C             2.800000            -9.699485             0.068200
H             0.850000           -10.652112             0.007261
C             3.500000           -10.911920             0.095234
C             4.900000           -10.911920             0.027954
H             2.950000           -11.864548             0.069755
H             5.450000           -11.864548             0.013935
