90
isomero_26_17
C             0.700000             1.212436             0.034818
C            -0.700000             1.212436             0.024226
C            -1.400000             0.000000             0.086869
C            -0.700000            -1.212436             0.080947
C             0.700000            -1.212436             0.092211
C             1.400000            -0.000000             0.023581
H             1.250000             2.165064             0.042354
H            -1.250000             2.165064             0.092519
C             2.800000             0.000000             0.004230
C             1.400000            -2.424871             0.046158
C             2.800000            -2.424871             0.042767
C             3.500000            -1.212436             0.097620
H             3.350000             0.952628             0.070802
C             4.900000            -1.212436             0.091498
C             3.500000            -3.637307             0.060560
C             4.900000            -3.637307             0.075556
C             5.600000            -2.424871             0.035002
H             5.450000            -0.259808             0.072040
C             7.000000            -2.424871             0.018368
C             5.600000            -4.849742             0.095427
C             7.000000            -4.849742             0.071712
C             7.700000            -3.637307             0.040001
H             7.550000            -1.472243             0.075527
C             9.100000            -3.637307             0.013969
C             7.700000            -6.062178             0.009712
C             9.100000            -6.062178             0.019404
C             9.800000            -4.849742             0.045569
H             9.650000            -2.684679             0.019941
C            11.200000            -4.849742             0.079620
C             9.800000            -7.274613             0.056684
C            11.200000            -7.274613             0.001348
C            11.900000            -6.062178             0.071567
H            11.750000            -3.897114             0.020702
H            11.750000            -8.227241             0.011848
H            13.000000            -6.062178             0.049162
C            -2.800000             0.000000             0.038096
C            -3.500000            -1.212436             0.034473
C            -2.800000            -2.424871             0.057601
N            -1.400000            -2.424871             0.022016
H            -3.350000             0.952628             0.070489
B            -0.700000            -3.637307             0.026957
C             0.700000            -3.637307             0.095826
C             1.400000            -4.849742             0.071113
C             2.800000            -4.849742             0.000328
C             3.500000            -6.062178             0.036119
C             4.900000            -6.062178             0.007920
C             5.600000            -7.274613             0.026895
C             7.000000            -7.274613             0.029628
C             7.700000            -8.487049             0.030577
C             9.100000            -8.487049             0.011369
H             9.650000            -9.439677             0.094974
C            -4.900000            -1.212436             0.077734
C            -5.600000            -2.424871             0.068098
C            -4.900000            -3.637307             0.052711
C            -3.500000            -3.637307             0.078498
H            -5.450000            -0.259808             0.051387
C            -2.800000            -4.849742             0.020436
C            -1.400000            -4.849742             0.048315
C            -0.700000            -6.062178             0.009416
C             0.700000            -6.062178             0.013949
C             1.400000            -7.274613             0.053748
C             2.800000            -7.274613             0.000062
C             3.500000            -8.487049             0.043037
C             4.900000            -8.487049             0.005707
C             5.600000            -9.699485             0.062442
C             7.000000            -9.699485             0.069953
H             7.550000           -10.652112             0.084093
C            -7.000000            -2.424871             0.039593
C            -7.700000            -3.637307             0.003960
C            -7.000000            -4.849742             0.050711
C            -5.600000            -4.849742             0.047488
H            -7.550000            -1.472243             0.061582
H            -8.800000            -3.637307             0.089609
H            -7.550000            -5.802370             0.071816
C            -4.900000            -6.062178             0.096819
C            -3.500000            -6.062178             0.052753
H            -5.450000            -7.014806             0.097616
C            -2.800000            -7.274613             0.094915
C            -1.400000            -7.274613             0.033611
H            -3.350000            -8.227241             0.074753
C            -0.700000            -8.487049             0.061009
C             0.700000            -8.487049             0.074105
H            -1.250000            -9.439677             0.053220
C             1.400000            -9.699485             0.074347
C             2.800000            -9.699485             0.004175
H             0.850000           -10.652112             0.061326
C             3.500000           -10.911920             0.009999
C             4.900000           -10.911920             0.025303
H             2.950000           -11.864548             0.074893
H             5.450000           -11.864548             0.014828
