90
isomero_16_15
C             0.700000             1.212436             0.081237
C            -0.700000             1.212436             0.097823
C            -1.400000             0.000000             0.040080
C            -0.700000            -1.212436             0.011045
C             0.700000            -1.212436             0.055069
C             1.400000            -0.000000             0.063754
H             1.250000             2.165064             0.079106
H            -1.250000             2.165064             0.005839
C             2.800000             0.000000             0.036828
B             1.400000            -2.424871             0.088449
N             2.800000            -2.424871             0.069105
C             3.500000            -1.212436             0.056905
H             3.350000             0.952628             0.093944
C             4.900000            -1.212436             0.030617
C             3.500000            -3.637307             0.079917
C             4.900000            -3.637307             0.039210
C             5.600000            -2.424871             0.094508
H             5.450000            -0.259808             0.025790
C             7.000000            -2.424871             0.056862
C             5.600000            -4.849742             0.087385
C             7.000000            -4.849742             0.068115
C             7.700000            -3.637307             0.024940
H             7.550000            -1.472243             0.058866
C             9.100000            -3.637307             0.037471
C             7.700000            -6.062178             0.099136
C             9.100000            -6.062178             0.071278
C             9.800000            -4.849742             0.005856
H             9.650000            -2.684679             0.044797
C            11.200000            -4.849742             0.074964
C             9.800000            -7.274613             0.009558
C            11.200000            -7.274613             0.028820
C            11.900000            -6.062178             0.045271
H            11.750000            -3.897114             0.087618
H            11.750000            -8.227241             0.084151
H            13.000000            -6.062178             0.057595
C            -2.800000             0.000000             0.078077
C            -3.500000            -1.212436             0.062303
C            -2.800000            -2.424871             0.034267
C            -1.400000            -2.424871             0.005595
H            -3.350000             0.952628             0.076907
C            -0.700000            -3.637307             0.037812
C             0.700000            -3.637307             0.010163
C             1.400000            -4.849742             0.061669
C             2.800000            -4.849742             0.024754
C             3.500000            -6.062178             0.098218
C             4.900000            -6.062178             0.091081
C             5.600000            -7.274613             0.046224
C             7.000000            -7.274613             0.009677
C             7.700000            -8.487049             0.080918
C             9.100000            -8.487049             0.051445
H             9.650000            -9.439677             0.080683
C            -4.900000            -1.212436             0.002613
C            -5.600000            -2.424871             0.065535
C            -4.900000            -3.637307             0.034952
C            -3.500000            -3.637307             0.089672
H            -5.450000            -0.259808             0.085127
C            -2.800000            -4.849742             0.014647
C            -1.400000            -4.849742             0.025177
C            -0.700000            -6.062178             0.078563
C             0.700000            -6.062178             0.045418
C             1.400000            -7.274613             0.078098
C             2.800000            -7.274613             0.079808
C             3.500000            -8.487049             0.027814
C             4.900000            -8.487049             0.086388
C             5.600000            -9.699485             0.099941
C             7.000000            -9.699485             0.080369
H             7.550000           -10.652112             0.014889
C            -7.000000            -2.424871             0.055606
C            -7.700000            -3.637307             0.028926
C            -7.000000            -4.849742             0.087776
C            -5.600000            -4.849742             0.076271
H            -7.550000            -1.472243             0.075339
H            -8.800000            -3.637307             0.094930
H            -7.550000            -5.802370             0.057026
C            -4.900000            -6.062178             0.010281
C            -3.500000            -6.062178             0.059605
H            -5.450000            -7.014806             0.093514
C            -2.800000            -7.274613             0.096355
C            -1.400000            -7.274613             0.065535
H            -3.350000            -8.227241             0.085277
C            -0.700000            -8.487049             0.052852
C             0.700000            -8.487049             0.014154
H            -1.250000            -9.439677             0.076010
C             1.400000            -9.699485             0.070012
C             2.800000            -9.699485             0.028098
H             0.850000           -10.652112             0.044967
C             3.500000           -10.911920             0.084461
C             4.900000           -10.911920             0.035231
H             2.950000           -11.864548             0.096189
H             5.450000           -11.864548             0.017253
