90
isomero_28_27
C             0.700000             1.212436             0.067828
C            -0.700000             1.212436             0.091558
C            -1.400000             0.000000             0.080400
C            -0.700000            -1.212436             0.061374
C             0.700000            -1.212436             0.055870
C             1.400000            -0.000000             0.037284
H             1.250000             2.165064             0.075257
H            -1.250000             2.165064             0.036360
C             2.800000             0.000000             0.007788
C             1.400000            -2.424871             0.037226
C             2.800000            -2.424871             0.073526
C             3.500000            -1.212436             0.085061
H             3.350000             0.952628             0.029269
C             4.900000            -1.212436             0.066137
C             3.500000            -3.637307             0.095913
C             4.900000            -3.637307             0.058904
C             5.600000            -2.424871             0.000715
H             5.450000            -0.259808             0.030795
C             7.000000            -2.424871             0.041455
C             5.600000            -4.849742             0.035367
C             7.000000            -4.849742             0.096968
C             7.700000            -3.637307             0.084661
H             7.550000            -1.472243             0.031625
C             9.100000            -3.637307             0.036926
C             7.700000            -6.062178             0.019202
C             9.100000            -6.062178             0.059588
C             9.800000            -4.849742             0.047898
H             9.650000            -2.684679             0.017698
C            11.200000            -4.849742             0.004553
C             9.800000            -7.274613             0.038839
C            11.200000            -7.274613             0.002160
C            11.900000            -6.062178             0.068624
H            11.750000            -3.897114             0.061249
H            11.750000            -8.227241             0.050022
H            13.000000            -6.062178             0.058072
C            -2.800000             0.000000             0.068971
C            -3.500000            -1.212436             0.002699
C            -2.800000            -2.424871             0.021670
C            -1.400000            -2.424871             0.013653
H            -3.350000             0.952628             0.067244
C            -0.700000            -3.637307             0.041821
C             0.700000            -3.637307             0.011556
C             1.400000            -4.849742             0.069369
C             2.800000            -4.849742             0.063564
C             3.500000            -6.062178             0.077832
C             4.900000            -6.062178             0.090564
C             5.600000            -7.274613             0.065783
C             7.000000            -7.274613             0.039148
C             7.700000            -8.487049             0.038056
C             9.100000            -8.487049             0.021830
H             9.650000            -9.439677             0.036764
C            -4.900000            -1.212436             0.036356
C            -5.600000            -2.424871             0.038178
B            -4.900000            -3.637307             0.074986
N            -3.500000            -3.637307             0.038590
H            -5.450000            -0.259808             0.014765
C            -2.800000            -4.849742             0.008587
C            -1.400000            -4.849742             0.071726
C            -0.700000            -6.062178             0.052213
C             0.700000            -6.062178             0.075327
C             1.400000            -7.274613             0.054049
C             2.800000            -7.274613             0.063320
C             3.500000            -8.487049             0.078433
C             4.900000            -8.487049             0.012516
C             5.600000            -9.699485             0.059603
C             7.000000            -9.699485             0.066853
H             7.550000           -10.652112             0.059662
C            -7.000000            -2.424871             0.046086
C            -7.700000            -3.637307             0.047334
C            -7.000000            -4.849742             0.015155
C            -5.600000            -4.849742             0.043597
H            -7.550000            -1.472243             0.028255
H            -8.800000            -3.637307             0.079637
H            -7.550000            -5.802370             0.013353
C            -4.900000            -6.062178             0.025080
C            -3.500000            -6.062178             0.025054
H            -5.450000            -7.014806             0.081270
C            -2.800000            -7.274613             0.013458
C            -1.400000            -7.274613             0.087746
H            -3.350000            -8.227241             0.030749
C            -0.700000            -8.487049             0.062539
C             0.700000            -8.487049             0.081511
H            -1.250000            -9.439677             0.039254
C             1.400000            -9.699485             0.069960
C             2.800000            -9.699485             0.066463
H             0.850000           -10.652112             0.060492
C             3.500000           -10.911920             0.044103
C             4.900000           -10.911920             0.098098
H             2.950000           -11.864548             0.064236
H             5.450000           -11.864548             0.000255
