90
isomero_8_3
C             0.700000             1.212436             0.047410
C            -0.700000             1.212436             0.030106
C            -1.400000             0.000000             0.062290
C            -0.700000            -1.212436             0.089100
C             0.700000            -1.212436             0.087433
C             1.400000            -0.000000             0.083126
H             1.250000             2.165064             0.078630
H            -1.250000             2.165064             0.053064
N             2.800000             0.000000             0.001022
C             1.400000            -2.424871             0.039470
C             2.800000            -2.424871             0.087960
B             3.500000            -1.212436             0.001794
H             3.350000             0.952628             0.011204
C             4.900000            -1.212436             0.019127
C             3.500000            -3.637307             0.064126
C             4.900000            -3.637307             0.047751
C             5.600000            -2.424871             0.022483
H             5.450000            -0.259808             0.052671
C             7.000000            -2.424871             0.068143
C             5.600000            -4.849742             0.074421
C             7.000000            -4.849742             0.081827
C             7.700000            -3.637307             0.092040
H             7.550000            -1.472243             0.085793
C             9.100000            -3.637307             0.052517
C             7.700000            -6.062178             0.017578
C             9.100000            -6.062178             0.054556
C             9.800000            -4.849742             0.089432
H             9.650000            -2.684679             0.054970
C            11.200000            -4.849742             0.031583
C             9.800000            -7.274613             0.056683
C            11.200000            -7.274613             0.049306
C            11.900000            -6.062178             0.022586
H            11.750000            -3.897114             0.099723
H            11.750000            -8.227241             0.099168
H            13.000000            -6.062178             0.083083
C            -2.800000             0.000000             0.077151
C            -3.500000            -1.212436             0.080731
C            -2.800000            -2.424871             0.063733
C            -1.400000            -2.424871             0.014148
H            -3.350000             0.952628             0.091144
C            -0.700000            -3.637307             0.026968
C             0.700000            -3.637307             0.099215
C             1.400000            -4.849742             0.045875
C             2.800000            -4.849742             0.063560
C             3.500000            -6.062178             0.066048
C             4.900000            -6.062178             0.005409
C             5.600000            -7.274613             0.004292
C             7.000000            -7.274613             0.027742
C             7.700000            -8.487049             0.007425
C             9.100000            -8.487049             0.063220
H             9.650000            -9.439677             0.034739
C            -4.900000            -1.212436             0.056405
C            -5.600000            -2.424871             0.000330
C            -4.900000            -3.637307             0.007492
C            -3.500000            -3.637307             0.075082
H            -5.450000            -0.259808             0.005042
C            -2.800000            -4.849742             0.051518
C            -1.400000            -4.849742             0.017517
C            -0.700000            -6.062178             0.076293
C             0.700000            -6.062178             0.059571
C             1.400000            -7.274613             0.089580
C             2.800000            -7.274613             0.082129
C             3.500000            -8.487049             0.066852
C             4.900000            -8.487049             0.062147
C             5.600000            -9.699485             0.098867
C             7.000000            -9.699485             0.057854
H             7.550000           -10.652112             0.048987
C            -7.000000            -2.424871             0.066204
C            -7.700000            -3.637307             0.080945
C            -7.000000            -4.849742             0.014731
C            -5.600000            -4.849742             0.010644
H            -7.550000            -1.472243             0.098134
H            -8.800000            -3.637307             0.082599
H            -7.550000            -5.802370             0.072270
C            -4.900000            -6.062178             0.018082
C            -3.500000            -6.062178             0.007146
H            -5.450000            -7.014806             0.008508
C            -2.800000            -7.274613             0.079083
C            -1.400000            -7.274613             0.030845
H            -3.350000            -8.227241             0.066315
C            -0.700000            -8.487049             0.079521
C             0.700000            -8.487049             0.061725
H            -1.250000            -9.439677             0.056239
C             1.400000            -9.699485             0.083531
C             2.800000            -9.699485             0.045532
H             0.850000           -10.652112             0.017962
C             3.500000           -10.911920             0.001026
C             4.900000           -10.911920             0.090890
H             2.950000           -11.864548             0.065968
H             5.450000           -11.864548             0.037312
