90
isomero_40_30
C             0.700000             1.212436             0.000584
C            -0.700000             1.212436             0.085325
C            -1.400000             0.000000             0.035843
C            -0.700000            -1.212436             0.052614
C             0.700000            -1.212436             0.082131
C             1.400000            -0.000000             0.094443
H             1.250000             2.165064             0.014708
H            -1.250000             2.165064             0.096236
C             2.800000             0.000000             0.082450
C             1.400000            -2.424871             0.060621
C             2.800000            -2.424871             0.032999
C             3.500000            -1.212436             0.075267
H             3.350000             0.952628             0.086247
C             4.900000            -1.212436             0.045719
C             3.500000            -3.637307             0.047566
C             4.900000            -3.637307             0.003575
C             5.600000            -2.424871             0.085941
H             5.450000            -0.259808             0.046647
C             7.000000            -2.424871             0.050086
C             5.600000            -4.849742             0.077016
C             7.000000            -4.849742             0.085991
C             7.700000            -3.637307             0.010338
H             7.550000            -1.472243             0.053092
C             9.100000            -3.637307             0.099567
C             7.700000            -6.062178             0.070857
C             9.100000            -6.062178             0.071507
C             9.800000            -4.849742             0.067977
H             9.650000            -2.684679             0.060370
N            11.200000            -4.849742             0.043992
C             9.800000            -7.274613             0.014519
C            11.200000            -7.274613             0.035416
B            11.900000            -6.062178             0.021120
H            11.750000            -3.897114             0.020623
H            11.750000            -8.227241             0.069822
H            13.000000            -6.062178             0.018018
C            -2.800000             0.000000             0.047217
C            -3.500000            -1.212436             0.083422
C            -2.800000            -2.424871             0.085499
C            -1.400000            -2.424871             0.090830
H            -3.350000             0.952628             0.075762
C            -0.700000            -3.637307             0.007560
C             0.700000            -3.637307             0.091742
C             1.400000            -4.849742             0.071571
C             2.800000            -4.849742             0.067626
C             3.500000            -6.062178             0.053824
C             4.900000            -6.062178             0.098988
C             5.600000            -7.274613             0.012442
C             7.000000            -7.274613             0.089223
C             7.700000            -8.487049             0.002509
C             9.100000            -8.487049             0.044132
H             9.650000            -9.439677             0.001270
C            -4.900000            -1.212436             0.068808
C            -5.600000            -2.424871             0.065094
C            -4.900000            -3.637307             0.054589
C            -3.500000            -3.637307             0.070114
H            -5.450000            -0.259808             0.022889
C            -2.800000            -4.849742             0.015322
C            -1.400000            -4.849742             0.015569
C            -0.700000            -6.062178             0.053801
C             0.700000            -6.062178             0.007899
C             1.400000            -7.274613             0.093270
C             2.800000            -7.274613             0.014782
C             3.500000            -8.487049             0.049390
C             4.900000            -8.487049             0.086763
C             5.600000            -9.699485             0.031178
C             7.000000            -9.699485             0.003566
H             7.550000           -10.652112             0.024849
C            -7.000000            -2.424871             0.037995
C            -7.700000            -3.637307             0.090888
C            -7.000000            -4.849742             0.085329
C            -5.600000            -4.849742             0.072307
H            -7.550000            -1.472243             0.012159
H            -8.800000            -3.637307             0.045999
H            -7.550000            -5.802370             0.039417
C            -4.900000            -6.062178             0.060282
C            -3.500000            -6.062178             0.093899
H            -5.450000            -7.014806             0.056346
C            -2.800000            -7.274613             0.060706
C            -1.400000            -7.274613             0.068116
H            -3.350000            -8.227241             0.025225
C            -0.700000            -8.487049             0.053631
C             0.700000            -8.487049             0.014204
H            -1.250000            -9.439677             0.062345
C             1.400000            -9.699485             0.053261
C             2.800000            -9.699485             0.006808
H             0.850000           -10.652112             0.002878
C             3.500000           -10.911920             0.018989
C             4.900000           -10.911920             0.021006
H             2.950000           -11.864548             0.043430
H             5.450000           -11.864548             0.050456
