90
isomero_5_2
C             0.700000             1.212436             0.056645
N            -0.700000             1.212436             0.044429
B            -1.400000             0.000000             0.092606
C            -0.700000            -1.212436             0.099923
C             0.700000            -1.212436             0.060144
C             1.400000            -0.000000             0.081104
H             1.250000             2.165064             0.081514
H            -1.250000             2.165064             0.006167
C             2.800000             0.000000             0.020611
C             1.400000            -2.424871             0.034929
C             2.800000            -2.424871             0.021090
C             3.500000            -1.212436             0.021366
H             3.350000             0.952628             0.032921
C             4.900000            -1.212436             0.027468
C             3.500000            -3.637307             0.073255
C             4.900000            -3.637307             0.070740
C             5.600000            -2.424871             0.028685
H             5.450000            -0.259808             0.000644
C             7.000000            -2.424871             0.030757
C             5.600000            -4.849742             0.034007
C             7.000000            -4.849742             0.044393
C             7.700000            -3.637307             0.019902
H             7.550000            -1.472243             0.036942
C             9.100000            -3.637307             0.074732
C             7.700000            -6.062178             0.031902
C             9.100000            -6.062178             0.097827
C             9.800000            -4.849742             0.095975
H             9.650000            -2.684679             0.084759
C            11.200000            -4.849742             0.058883
C             9.800000            -7.274613             0.010934
C            11.200000            -7.274613             0.019336
C            11.900000            -6.062178             0.049424
H            11.750000            -3.897114             0.008907
H            11.750000            -8.227241             0.092982
H            13.000000            -6.062178             0.086783
C            -2.800000             0.000000             0.068934
C            -3.500000            -1.212436             0.032013
C            -2.800000            -2.424871             0.029408
C            -1.400000            -2.424871             0.060096
H            -3.350000             0.952628             0.026295
C            -0.700000            -3.637307             0.030790
C             0.700000            -3.637307             0.028971
C             1.400000            -4.849742             0.089805
C             2.800000            -4.849742             0.091784
C             3.500000            -6.062178             0.051707
C             4.900000            -6.062178             0.049477
C             5.600000            -7.274613             0.088051
C             7.000000            -7.274613             0.061630
C             7.700000            -8.487049             0.014490
C             9.100000            -8.487049             0.011116
H             9.650000            -9.439677             0.014749
C            -4.900000            -1.212436             0.096411
C            -5.600000            -2.424871             0.049071
C            -4.900000            -3.637307             0.063019
C            -3.500000            -3.637307             0.039483
H            -5.450000            -0.259808             0.079128
C            -2.800000            -4.849742             0.068944
C            -1.400000            -4.849742             0.071022
C            -0.700000            -6.062178             0.011607
C             0.700000            -6.062178             0.093582
C             1.400000            -7.274613             0.032250
C             2.800000            -7.274613             0.097671
C             3.500000            -8.487049             0.051465
C             4.900000            -8.487049             0.051222
C             5.600000            -9.699485             0.011794
C             7.000000            -9.699485             0.064233
H             7.550000           -10.652112             0.033313
C            -7.000000            -2.424871             0.098413
C            -7.700000            -3.637307             0.097696
C            -7.000000            -4.849742             0.094726
C            -5.600000            -4.849742             0.002611
H            -7.550000            -1.472243             0.036363
H            -8.800000            -3.637307             0.006271
H            -7.550000            -5.802370             0.015420
C            -4.900000            -6.062178             0.093072
C            -3.500000            -6.062178             0.033541
H            -5.450000            -7.014806             0.033218
C            -2.800000            -7.274613             0.048043
C            -1.400000            -7.274613             0.069733
H            -3.350000            -8.227241             0.034947
C            -0.700000            -8.487049             0.024774
C             0.700000            -8.487049             0.085416
H            -1.250000            -9.439677             0.088220
C             1.400000            -9.699485             0.086867
C             2.800000            -9.699485             0.017421
H             0.850000           -10.652112             0.022184
C             3.500000           -10.911920             0.043694
C             4.900000           -10.911920             0.004619
H             2.950000           -11.864548             0.062652
H             5.450000           -11.864548             0.009194
