90
isomero_7_8
C             0.700000             1.212436             0.030913
C            -0.700000             1.212436             0.012802
C            -1.400000             0.000000             0.001971
C            -0.700000            -1.212436             0.013482
C             0.700000            -1.212436             0.030022
C             1.400000            -0.000000             0.023271
H             1.250000             2.165064             0.064660
H            -1.250000             2.165064             0.037843
C             2.800000             0.000000             0.074533
C             1.400000            -2.424871             0.017417
C             2.800000            -2.424871             0.080853
N             3.500000            -1.212436             0.001689
H             3.350000             0.952628             0.059476
B             4.900000            -1.212436             0.030010
C             3.500000            -3.637307             0.016028
C             4.900000            -3.637307             0.001822
C             5.600000            -2.424871             0.082435
H             5.450000            -0.259808             0.071795
C             7.000000            -2.424871             0.076981
C             5.600000            -4.849742             0.097692
C             7.000000            -4.849742             0.030875
C             7.700000            -3.637307             0.027465
H             7.550000            -1.472243             0.088410
C             9.100000            -3.637307             0.041380
C             7.700000            -6.062178             0.047759
C             9.100000            -6.062178             0.072901
C             9.800000            -4.849742             0.015093
H             9.650000            -2.684679             0.041749
C            11.200000            -4.849742             0.023453
C             9.800000            -7.274613             0.017134
C            11.200000            -7.274613             0.093379
C            11.900000            -6.062178             0.057549
H            11.750000            -3.897114             0.030887
H            11.750000            -8.227241             0.012339
H            13.000000            -6.062178             0.069799
C            -2.800000             0.000000             0.095962
C            -3.500000            -1.212436             0.005180
C            -2.800000            -2.424871             0.071086
C            -1.400000            -2.424871             0.086807
H            -3.350000             0.952628             0.074198
C            -0.700000            -3.637307             0.096741
C             0.700000            -3.637307             0.094136
C             1.400000            -4.849742             0.017224
C             2.800000            -4.849742             0.071092
C             3.500000            -6.062178             0.058842
C             4.900000            -6.062178             0.036998
C             5.600000            -7.274613             0.050468
C             7.000000            -7.274613             0.083230
C             7.700000            -8.487049             0.022022
C             9.100000            -8.487049             0.095690
H             9.650000            -9.439677             0.064025
C            -4.900000            -1.212436             0.057611
C            -5.600000            -2.424871             0.044402
C            -4.900000            -3.637307             0.059961
C            -3.500000            -3.637307             0.030793
H            -5.450000            -0.259808             0.087035
C            -2.800000            -4.849742             0.033447
C            -1.400000            -4.849742             0.031176
C            -0.700000            -6.062178             0.075896
C             0.700000            -6.062178             0.025914
C             1.400000            -7.274613             0.013052
C             2.800000            -7.274613             0.057799
C             3.500000            -8.487049             0.013329
C             4.900000            -8.487049             0.053112
C             5.600000            -9.699485             0.054197
C             7.000000            -9.699485             0.026621
H             7.550000           -10.652112             0.058620
C            -7.000000            -2.424871             0.023477
C            -7.700000            -3.637307             0.028105
C            -7.000000            -4.849742             0.056600
C            -5.600000            -4.849742             0.045036
H            -7.550000            -1.472243             0.084455
H            -8.800000            -3.637307             0.003692
H            -7.550000            -5.802370             0.019558
C            -4.900000            -6.062178             0.002133
C            -3.500000            -6.062178             0.056263
H            -5.450000            -7.014806             0.005384
C            -2.800000            -7.274613             0.033620
C            -1.400000            -7.274613             0.045848
H            -3.350000            -8.227241             0.087520
C            -0.700000            -8.487049             0.068959
C             0.700000            -8.487049             0.023177
H            -1.250000            -9.439677             0.048869
C             1.400000            -9.699485             0.065688
C             2.800000            -9.699485             0.020661
H             0.850000           -10.652112             0.097867
C             3.500000           -10.911920             0.092135
C             4.900000           -10.911920             0.011608
H             2.950000           -11.864548             0.093881
H             5.450000           -11.864548             0.041335
