90
isomero_22_21
C             0.700000             1.212436             0.043296
C            -0.700000             1.212436             0.032231
C            -1.400000             0.000000             0.066167
C            -0.700000            -1.212436             0.066192
C             0.700000            -1.212436             0.051753
C             1.400000            -0.000000             0.045302
H             1.250000             2.165064             0.046155
H            -1.250000             2.165064             0.048378
C             2.800000             0.000000             0.095681
C             1.400000            -2.424871             0.099513
C             2.800000            -2.424871             0.026267
C             3.500000            -1.212436             0.077784
H             3.350000             0.952628             0.092982
C             4.900000            -1.212436             0.020160
C             3.500000            -3.637307             0.099404
C             4.900000            -3.637307             0.078727
C             5.600000            -2.424871             0.052876
H             5.450000            -0.259808             0.066583
C             7.000000            -2.424871             0.012550
C             5.600000            -4.849742             0.014708
C             7.000000            -4.849742             0.081252
B             7.700000            -3.637307             0.054263
H             7.550000            -1.472243             0.086407
N             9.100000            -3.637307             0.014063
C             7.700000            -6.062178             0.007712
C             9.100000            -6.062178             0.018065
C             9.800000            -4.849742             0.020801
H             9.650000            -2.684679             0.057925
C            11.200000            -4.849742             0.083581
C             9.800000            -7.274613             0.004058
C            11.200000            -7.274613             0.020481
C            11.900000            -6.062178             0.053162
H            11.750000            -3.897114             0.054263
H            11.750000            -8.227241             0.099067
H            13.000000            -6.062178             0.099552
C            -2.800000             0.000000             0.026387
C            -3.500000            -1.212436             0.030489
C            -2.800000            -2.424871             0.031338
C            -1.400000            -2.424871             0.063444
H            -3.350000             0.952628             0.024948
C            -0.700000            -3.637307             0.048994
C             0.700000            -3.637307             0.036677
C             1.400000            -4.849742             0.003930
C             2.800000            -4.849742             0.039984
C             3.500000            -6.062178             0.061503
C             4.900000            -6.062178             0.065632
C             5.600000            -7.274613             0.020619
C             7.000000            -7.274613             0.078737
C             7.700000            -8.487049             0.027519
C             9.100000            -8.487049             0.049925
H             9.650000            -9.439677             0.014181
C            -4.900000            -1.212436             0.047623
C            -5.600000            -2.424871             0.096815
C            -4.900000            -3.637307             0.025874
C            -3.500000            -3.637307             0.046058
H            -5.450000            -0.259808             0.065926
C            -2.800000            -4.849742             0.041998
C            -1.400000            -4.849742             0.032871
C            -0.700000            -6.062178             0.083923
C             0.700000            -6.062178             0.052786
C             1.400000            -7.274613             0.096320
C             2.800000            -7.274613             0.097361
C             3.500000            -8.487049             0.010936
C             4.900000            -8.487049             0.063745
C             5.600000            -9.699485             0.084194
C             7.000000            -9.699485             0.081252
H             7.550000           -10.652112             0.047388
C            -7.000000            -2.424871             0.024003
C            -7.700000            -3.637307             0.011285
C            -7.000000            -4.849742             0.021272
C            -5.600000            -4.849742             0.076567
H            -7.550000            -1.472243             0.034273
H            -8.800000            -3.637307             0.016366
H            -7.550000            -5.802370             0.045125
C            -4.900000            -6.062178             0.027220
C            -3.500000            -6.062178             0.050797
H            -5.450000            -7.014806             0.090363
C            -2.800000            -7.274613             0.044345
C            -1.400000            -7.274613             0.082602
H            -3.350000            -8.227241             0.002102
C            -0.700000            -8.487049             0.004642
C             0.700000            -8.487049             0.065348
H            -1.250000            -9.439677             0.084793
C             1.400000            -9.699485             0.033036
C             2.800000            -9.699485             0.079357
H             0.850000           -10.652112             0.025148
C             3.500000           -10.911920             0.035542
C             4.900000           -10.911920             0.094972
H             2.950000           -11.864548             0.048287
H             5.450000           -11.864548             0.016935
