90
isomero_9_16
C             0.700000             1.212436             0.053130
C            -0.700000             1.212436             0.092820
C            -1.400000             0.000000             0.024299
C            -0.700000            -1.212436             0.065237
B             0.700000            -1.212436             0.058354
C             1.400000            -0.000000             0.024358
H             1.250000             2.165064             0.018386
H            -1.250000             2.165064             0.004878
C             2.800000             0.000000             0.052800
N             1.400000            -2.424871             0.065768
C             2.800000            -2.424871             0.032998
C             3.500000            -1.212436             0.016834
H             3.350000             0.952628             0.016546
C             4.900000            -1.212436             0.004587
C             3.500000            -3.637307             0.022914
C             4.900000            -3.637307             0.057681
C             5.600000            -2.424871             0.040564
H             5.450000            -0.259808             0.016334
C             7.000000            -2.424871             0.036897
C             5.600000            -4.849742             0.060222
C             7.000000            -4.849742             0.096288
C             7.700000            -3.637307             0.099121
H             7.550000            -1.472243             0.006995
C             9.100000            -3.637307             0.023183
C             7.700000            -6.062178             0.027561
C             9.100000            -6.062178             0.080995
C             9.800000            -4.849742             0.097580
H             9.650000            -2.684679             0.000012
C            11.200000            -4.849742             0.047239
C             9.800000            -7.274613             0.047499
C            11.200000            -7.274613             0.012933
C            11.900000            -6.062178             0.036645
H            11.750000            -3.897114             0.048458
H            11.750000            -8.227241             0.080368
H            13.000000            -6.062178             0.068250
C            -2.800000             0.000000             0.002095
C            -3.500000            -1.212436             0.013332
C            -2.800000            -2.424871             0.063732
C            -1.400000            -2.424871             0.041509
H            -3.350000             0.952628             0.007446
C            -0.700000            -3.637307             0.086590
C             0.700000            -3.637307             0.035322
C             1.400000            -4.849742             0.086556
C             2.800000            -4.849742             0.033173
C             3.500000            -6.062178             0.069543
C             4.900000            -6.062178             0.064530
C             5.600000            -7.274613             0.056186
C             7.000000            -7.274613             0.092693
C             7.700000            -8.487049             0.058909
C             9.100000            -8.487049             0.041167
H             9.650000            -9.439677             0.052165
C            -4.900000            -1.212436             0.087821
C            -5.600000            -2.424871             0.046118
C            -4.900000            -3.637307             0.043537
C            -3.500000            -3.637307             0.059385
H            -5.450000            -0.259808             0.007496
C            -2.800000            -4.849742             0.003580
C            -1.400000            -4.849742             0.029410
C            -0.700000            -6.062178             0.075689
C             0.700000            -6.062178             0.076797
C             1.400000            -7.274613             0.008964
C             2.800000            -7.274613             0.030541
C             3.500000            -8.487049             0.020478
C             4.900000            -8.487049             0.001185
C             5.600000            -9.699485             0.064744
C             7.000000            -9.699485             0.070610
H             7.550000           -10.652112             0.078009
C            -7.000000            -2.424871             0.084743
C            -7.700000            -3.637307             0.067514
C            -7.000000            -4.849742             0.068576
C            -5.600000            -4.849742             0.081463
H            -7.550000            -1.472243             0.000343
H            -8.800000            -3.637307             0.088038
H            -7.550000            -5.802370             0.044747
C            -4.900000            -6.062178             0.082051
C            -3.500000            -6.062178             0.082838
H            -5.450000            -7.014806             0.087206
C            -2.800000            -7.274613             0.027508
C            -1.400000            -7.274613             0.008911
H            -3.350000            -8.227241             0.000442
C            -0.700000            -8.487049             0.093433
C             0.700000            -8.487049             0.073153
H            -1.250000            -9.439677             0.082119
C             1.400000            -9.699485             0.014128
C             2.800000            -9.699485             0.070148
H             0.850000           -10.652112             0.069816
C             3.500000           -10.911920             0.037233
C             4.900000           -10.911920             0.056903
H             2.950000           -11.864548             0.037152
H             5.450000           -11.864548             0.061954
