90
isomero_31_21
C             0.700000             1.212436             0.002525
C            -0.700000             1.212436             0.008844
C            -1.400000             0.000000             0.073593
C            -0.700000            -1.212436             0.080296
C             0.700000            -1.212436             0.019910
C             1.400000            -0.000000             0.091766
H             1.250000             2.165064             0.089761
H            -1.250000             2.165064             0.058367
C             2.800000             0.000000             0.068092
C             1.400000            -2.424871             0.083480
C             2.800000            -2.424871             0.075484
C             3.500000            -1.212436             0.057818
H             3.350000             0.952628             0.039996
C             4.900000            -1.212436             0.004262
C             3.500000            -3.637307             0.004953
C             4.900000            -3.637307             0.030330
C             5.600000            -2.424871             0.073542
H             5.450000            -0.259808             0.030518
C             7.000000            -2.424871             0.035392
C             5.600000            -4.849742             0.055795
C             7.000000            -4.849742             0.019173
C             7.700000            -3.637307             0.058835
H             7.550000            -1.472243             0.004279
N             9.100000            -3.637307             0.080076
C             7.700000            -6.062178             0.036554
C             9.100000            -6.062178             0.024521
B             9.800000            -4.849742             0.056046
H             9.650000            -2.684679             0.062425
C            11.200000            -4.849742             0.030238
C             9.800000            -7.274613             0.047257
C            11.200000            -7.274613             0.058789
C            11.900000            -6.062178             0.087089
H            11.750000            -3.897114             0.017003
H            11.750000            -8.227241             0.048407
H            13.000000            -6.062178             0.053071
C            -2.800000             0.000000             0.083537
C            -3.500000            -1.212436             0.090956
C            -2.800000            -2.424871             0.000147
C            -1.400000            -2.424871             0.021431
H            -3.350000             0.952628             0.026000
C            -0.700000            -3.637307             0.064546
C             0.700000            -3.637307             0.095643
C             1.400000            -4.849742             0.080979
C             2.800000            -4.849742             0.061199
C             3.500000            -6.062178             0.033103
C             4.900000            -6.062178             0.041115
C             5.600000            -7.274613             0.058499
C             7.000000            -7.274613             0.035357
C             7.700000            -8.487049             0.039832
C             9.100000            -8.487049             0.000245
H             9.650000            -9.439677             0.067530
C            -4.900000            -1.212436             0.092468
C            -5.600000            -2.424871             0.099276
C            -4.900000            -3.637307             0.023399
C            -3.500000            -3.637307             0.087394
H            -5.450000            -0.259808             0.070144
C            -2.800000            -4.849742             0.009021
C            -1.400000            -4.849742             0.004649
C            -0.700000            -6.062178             0.087189
C             0.700000            -6.062178             0.095383
C             1.400000            -7.274613             0.096220
C             2.800000            -7.274613             0.012635
C             3.500000            -8.487049             0.073708
C             4.900000            -8.487049             0.097558
C             5.600000            -9.699485             0.036678
C             7.000000            -9.699485             0.050897
H             7.550000           -10.652112             0.031544
C            -7.000000            -2.424871             0.012744
C            -7.700000            -3.637307             0.081772
C            -7.000000            -4.849742             0.074553
C            -5.600000            -4.849742             0.059645
H            -7.550000            -1.472243             0.057556
H            -8.800000            -3.637307             0.026085
H            -7.550000            -5.802370             0.006440
C            -4.900000            -6.062178             0.043684
C            -3.500000            -6.062178             0.055251
H            -5.450000            -7.014806             0.064886
C            -2.800000            -7.274613             0.043237
C            -1.400000            -7.274613             0.041679
H            -3.350000            -8.227241             0.005174
C            -0.700000            -8.487049             0.015981
C             0.700000            -8.487049             0.078328
H            -1.250000            -9.439677             0.014785
C             1.400000            -9.699485             0.090915
C             2.800000            -9.699485             0.059143
H             0.850000           -10.652112             0.088654
C             3.500000           -10.911920             0.005364
C             4.900000           -10.911920             0.046630
H             2.950000           -11.864548             0.011209
H             5.450000           -11.864548             0.090073
