90
isomero_32_42
C             0.700000             1.212436             0.022284
C            -0.700000             1.212436             0.018197
C            -1.400000             0.000000             0.004667
C            -0.700000            -1.212436             0.061999
C             0.700000            -1.212436             0.049108
C             1.400000            -0.000000             0.060781
H             1.250000             2.165064             0.089375
H            -1.250000             2.165064             0.087164
C             2.800000             0.000000             0.092490
C             1.400000            -2.424871             0.040141
C             2.800000            -2.424871             0.009809
C             3.500000            -1.212436             0.071030
H             3.350000             0.952628             0.093328
C             4.900000            -1.212436             0.017743
C             3.500000            -3.637307             0.058739
C             4.900000            -3.637307             0.095306
C             5.600000            -2.424871             0.063680
H             5.450000            -0.259808             0.087915
C             7.000000            -2.424871             0.002353
C             5.600000            -4.849742             0.008349
B             7.000000            -4.849742             0.074017
C             7.700000            -3.637307             0.082074
H             7.550000            -1.472243             0.027824
C             9.100000            -3.637307             0.016534
N             7.700000            -6.062178             0.010393
C             9.100000            -6.062178             0.097640
C             9.800000            -4.849742             0.003879
H             9.650000            -2.684679             0.088269
C            11.200000            -4.849742             0.095757
C             9.800000            -7.274613             0.035169
C            11.200000            -7.274613             0.026874
C            11.900000            -6.062178             0.095762
H            11.750000            -3.897114             0.088354
H            11.750000            -8.227241             0.042180
H            13.000000            -6.062178             0.064416
C            -2.800000             0.000000             0.006507
C            -3.500000            -1.212436             0.042024
C            -2.800000            -2.424871             0.044341
C            -1.400000            -2.424871             0.012333
H            -3.350000             0.952628             0.039632
C            -0.700000            -3.637307             0.057500
C             0.700000            -3.637307             0.056511
C             1.400000            -4.849742             0.030336
C             2.800000            -4.849742             0.023984
C             3.500000            -6.062178             0.043095
C             4.900000            -6.062178             0.053597
C             5.600000            -7.274613             0.058387
C             7.000000            -7.274613             0.062617
C             7.700000            -8.487049             0.071527
C             9.100000            -8.487049             0.049868
H             9.650000            -9.439677             0.027687
C            -4.900000            -1.212436             0.036331
C            -5.600000            -2.424871             0.030628
C            -4.900000            -3.637307             0.051202
C            -3.500000            -3.637307             0.019975
H            -5.450000            -0.259808             0.008645
C            -2.800000            -4.849742             0.078700
C            -1.400000            -4.849742             0.049425
C            -0.700000            -6.062178             0.055900
C             0.700000            -6.062178             0.039369
C             1.400000            -7.274613             0.098512
C             2.800000            -7.274613             0.070414
C             3.500000            -8.487049             0.027173
C             4.900000            -8.487049             0.000422
C             5.600000            -9.699485             0.065771
C             7.000000            -9.699485             0.048003
H             7.550000           -10.652112             0.088942
C            -7.000000            -2.424871             0.008831
C            -7.700000            -3.637307             0.095102
C            -7.000000            -4.849742             0.008943
C            -5.600000            -4.849742             0.056525
H            -7.550000            -1.472243             0.030704
H            -8.800000            -3.637307             0.011020
H            -7.550000            -5.802370             0.000683
C            -4.900000            -6.062178             0.008665
C            -3.500000            -6.062178             0.074705
H            -5.450000            -7.014806             0.004971
C            -2.800000            -7.274613             0.018590
C            -1.400000            -7.274613             0.033527
H            -3.350000            -8.227241             0.015050
C            -0.700000            -8.487049             0.003847
C             0.700000            -8.487049             0.030322
H            -1.250000            -9.439677             0.010948
C             1.400000            -9.699485             0.092603
C             2.800000            -9.699485             0.078832
H             0.850000           -10.652112             0.009042
C             3.500000           -10.911920             0.087041
C             4.900000           -10.911920             0.052608
H             2.950000           -11.864548             0.038503
H             5.450000           -11.864548             0.049456
