90
isomero_24_15
C             0.700000             1.212436             0.054429
C            -0.700000             1.212436             0.023830
C            -1.400000             0.000000             0.006089
C            -0.700000            -1.212436             0.069065
C             0.700000            -1.212436             0.092435
C             1.400000            -0.000000             0.014781
H             1.250000             2.165064             0.072699
H            -1.250000             2.165064             0.046012
C             2.800000             0.000000             0.026884
C             1.400000            -2.424871             0.077970
N             2.800000            -2.424871             0.055139
C             3.500000            -1.212436             0.067813
H             3.350000             0.952628             0.073264
C             4.900000            -1.212436             0.033683
B             3.500000            -3.637307             0.013128
C             4.900000            -3.637307             0.008407
C             5.600000            -2.424871             0.078615
H             5.450000            -0.259808             0.051839
C             7.000000            -2.424871             0.078687
C             5.600000            -4.849742             0.091552
C             7.000000            -4.849742             0.080598
C             7.700000            -3.637307             0.011678
H             7.550000            -1.472243             0.096287
C             9.100000            -3.637307             0.001682
C             7.700000            -6.062178             0.008997
C             9.100000            -6.062178             0.090394
C             9.800000            -4.849742             0.064173
H             9.650000            -2.684679             0.031826
C            11.200000            -4.849742             0.065295
C             9.800000            -7.274613             0.063344
C            11.200000            -7.274613             0.017112
C            11.900000            -6.062178             0.071658
H            11.750000            -3.897114             0.068250
H            11.750000            -8.227241             0.018012
H            13.000000            -6.062178             0.009701
C            -2.800000             0.000000             0.018577
C            -3.500000            -1.212436             0.088276
C            -2.800000            -2.424871             0.026872
C            -1.400000            -2.424871             0.093248
H            -3.350000             0.952628             0.029796
C            -0.700000            -3.637307             0.079052
C             0.700000            -3.637307             0.022823
C             1.400000            -4.849742             0.082816
C             2.800000            -4.849742             0.097256
C             3.500000            -6.062178             0.023533
C             4.900000            -6.062178             0.095485
C             5.600000            -7.274613             0.018365
C             7.000000            -7.274613             0.073940
C             7.700000            -8.487049             0.020813
C             9.100000            -8.487049             0.066572
H             9.650000            -9.439677             0.052108
C            -4.900000            -1.212436             0.079752
C            -5.600000            -2.424871             0.040197
C            -4.900000            -3.637307             0.096026
C            -3.500000            -3.637307             0.044920
H            -5.450000            -0.259808             0.069682
C            -2.800000            -4.849742             0.005487
C            -1.400000            -4.849742             0.050857
C            -0.700000            -6.062178             0.063449
C             0.700000            -6.062178             0.029742
C             1.400000            -7.274613             0.049681
C             2.800000            -7.274613             0.086284
C             3.500000            -8.487049             0.040949
C             4.900000            -8.487049             0.048218
C             5.600000            -9.699485             0.079894
C             7.000000            -9.699485             0.005103
H             7.550000           -10.652112             0.051495
C            -7.000000            -2.424871             0.061880
C            -7.700000            -3.637307             0.062623
C            -7.000000            -4.849742             0.053364
C            -5.600000            -4.849742             0.089612
H            -7.550000            -1.472243             0.037999
H            -8.800000            -3.637307             0.036756
H            -7.550000            -5.802370             0.011411
C            -4.900000            -6.062178             0.094848
C            -3.500000            -6.062178             0.092189
H            -5.450000            -7.014806             0.045163
C            -2.800000            -7.274613             0.024230
C            -1.400000            -7.274613             0.050682
H            -3.350000            -8.227241             0.087904
C            -0.700000            -8.487049             0.041488
C             0.700000            -8.487049             0.071554
H            -1.250000            -9.439677             0.043606
C             1.400000            -9.699485             0.064742
C             2.800000            -9.699485             0.035776
H             0.850000           -10.652112             0.013517
C             3.500000           -10.911920             0.051739
C             4.900000           -10.911920             0.038531
H             2.950000           -11.864548             0.071132
H             5.450000           -11.864548             0.084027
