90
isomero_6_11
C             0.700000             1.212436             0.097044
C            -0.700000             1.212436             0.050271
C            -1.400000             0.000000             0.037366
C            -0.700000            -1.212436             0.075504
C             0.700000            -1.212436             0.042731
C             1.400000            -0.000000             0.061893
H             1.250000             2.165064             0.083446
H            -1.250000             2.165064             0.010106
C             2.800000             0.000000             0.050494
C             1.400000            -2.424871             0.081517
C             2.800000            -2.424871             0.038014
C             3.500000            -1.212436             0.013537
H             3.350000             0.952628             0.072685
C             4.900000            -1.212436             0.009864
C             3.500000            -3.637307             0.076049
C             4.900000            -3.637307             0.070349
C             5.600000            -2.424871             0.087791
H             5.450000            -0.259808             0.084610
C             7.000000            -2.424871             0.032782
C             5.600000            -4.849742             0.010119
C             7.000000            -4.849742             0.069300
C             7.700000            -3.637307             0.008488
H             7.550000            -1.472243             0.051035
C             9.100000            -3.637307             0.043738
C             7.700000            -6.062178             0.028246
C             9.100000            -6.062178             0.069803
C             9.800000            -4.849742             0.056994
H             9.650000            -2.684679             0.050301
C            11.200000            -4.849742             0.005119
C             9.800000            -7.274613             0.091283
C            11.200000            -7.274613             0.027800
C            11.900000            -6.062178             0.069137
H            11.750000            -3.897114             0.004943
H            11.750000            -8.227241             0.032424
H            13.000000            -6.062178             0.002058
B            -2.800000             0.000000             0.010955
N            -3.500000            -1.212436             0.021475
C            -2.800000            -2.424871             0.092595
C            -1.400000            -2.424871             0.068713
H            -3.350000             0.952628             0.036595
C            -0.700000            -3.637307             0.099328
C             0.700000            -3.637307             0.006432
C             1.400000            -4.849742             0.051252
C             2.800000            -4.849742             0.080507
C             3.500000            -6.062178             0.073022
C             4.900000            -6.062178             0.059745
C             5.600000            -7.274613             0.011263
C             7.000000            -7.274613             0.054660
C             7.700000            -8.487049             0.088819
C             9.100000            -8.487049             0.025520
H             9.650000            -9.439677             0.039557
C            -4.900000            -1.212436             0.025460
C            -5.600000            -2.424871             0.042173
C            -4.900000            -3.637307             0.067038
C            -3.500000            -3.637307             0.092307
H            -5.450000            -0.259808             0.017884
C            -2.800000            -4.849742             0.089816
C            -1.400000            -4.849742             0.068567
C            -0.700000            -6.062178             0.072117
C             0.700000            -6.062178             0.039126
C             1.400000            -7.274613             0.082421
C             2.800000            -7.274613             0.062312
C             3.500000            -8.487049             0.083157
C             4.900000            -8.487049             0.008483
C             5.600000            -9.699485             0.002589
C             7.000000            -9.699485             0.001071
H             7.550000           -10.652112             0.080598
C            -7.000000            -2.424871             0.009703
C            -7.700000            -3.637307             0.033488
C            -7.000000            -4.849742             0.041101
C            -5.600000            -4.849742             0.099169
H            -7.550000            -1.472243             0.098171
H            -8.800000            -3.637307             0.021881
H            -7.550000            -5.802370             0.037004
C            -4.900000            -6.062178             0.019190
C            -3.500000            -6.062178             0.017891
H            -5.450000            -7.014806             0.061804
C            -2.800000            -7.274613             0.094330
C            -1.400000            -7.274613             0.015922
H            -3.350000            -8.227241             0.084661
C            -0.700000            -8.487049             0.074068
C             0.700000            -8.487049             0.038439
H            -1.250000            -9.439677             0.026055
C             1.400000            -9.699485             0.078416
C             2.800000            -9.699485             0.032405
H             0.850000           -10.652112             0.037884
C             3.500000           -10.911920             0.095173
C             4.900000           -10.911920             0.043974
H             2.950000           -11.864548             0.049521
H             5.450000           -11.864548             0.005862
