90
isomero_17_26
C             0.700000             1.212436             0.093540
C            -0.700000             1.212436             0.072484
C            -1.400000             0.000000             0.074779
C            -0.700000            -1.212436             0.041066
C             0.700000            -1.212436             0.027211
C             1.400000            -0.000000             0.028002
H             1.250000             2.165064             0.083297
H            -1.250000             2.165064             0.020658
C             2.800000             0.000000             0.038567
C             1.400000            -2.424871             0.094022
C             2.800000            -2.424871             0.098510
C             3.500000            -1.212436             0.037038
H             3.350000             0.952628             0.000781
C             4.900000            -1.212436             0.013082
C             3.500000            -3.637307             0.061644
C             4.900000            -3.637307             0.029358
C             5.600000            -2.424871             0.081127
H             5.450000            -0.259808             0.019471
C             7.000000            -2.424871             0.069309
C             5.600000            -4.849742             0.071194
C             7.000000            -4.849742             0.067997
C             7.700000            -3.637307             0.064588
H             7.550000            -1.472243             0.088338
C             9.100000            -3.637307             0.004895
C             7.700000            -6.062178             0.002863
C             9.100000            -6.062178             0.001874
C             9.800000            -4.849742             0.042100
H             9.650000            -2.684679             0.078462
C            11.200000            -4.849742             0.095059
C             9.800000            -7.274613             0.044608
C            11.200000            -7.274613             0.009841
C            11.900000            -6.062178             0.094423
H            11.750000            -3.897114             0.088620
H            11.750000            -8.227241             0.046100
H            13.000000            -6.062178             0.048648
C            -2.800000             0.000000             0.066403
C            -3.500000            -1.212436             0.091201
C            -2.800000            -2.424871             0.050747
B            -1.400000            -2.424871             0.074774
H            -3.350000             0.952628             0.019308
N            -0.700000            -3.637307             0.073676
C             0.700000            -3.637307             0.053645
C             1.400000            -4.849742             0.013442
C             2.800000            -4.849742             0.053054
C             3.500000            -6.062178             0.061020
C             4.900000            -6.062178             0.045435
C             5.600000            -7.274613             0.031275
C             7.000000            -7.274613             0.049770
C             7.700000            -8.487049             0.056089
C             9.100000            -8.487049             0.089322
H             9.650000            -9.439677             0.017634
C            -4.900000            -1.212436             0.037845
C            -5.600000            -2.424871             0.079679
C            -4.900000            -3.637307             0.050675
C            -3.500000            -3.637307             0.020720
H            -5.450000            -0.259808             0.078864
C            -2.800000            -4.849742             0.086317
C            -1.400000            -4.849742             0.004495
C            -0.700000            -6.062178             0.040300
C             0.700000            -6.062178             0.010613
C             1.400000            -7.274613             0.097489
C             2.800000            -7.274613             0.031940
C             3.500000            -8.487049             0.066989
C             4.900000            -8.487049             0.051656
C             5.600000            -9.699485             0.098806
C             7.000000            -9.699485             0.024317
H             7.550000           -10.652112             0.076165
C            -7.000000            -2.424871             0.066176
C            -7.700000            -3.637307             0.003981
C            -7.000000            -4.849742             0.000310
C            -5.600000            -4.849742             0.013120
H            -7.550000            -1.472243             0.042179
H            -8.800000            -3.637307             0.098242
H            -7.550000            -5.802370             0.086769
C            -4.900000            -6.062178             0.056102
C            -3.500000            -6.062178             0.065143
H            -5.450000            -7.014806             0.042124
C            -2.800000            -7.274613             0.014942
C            -1.400000            -7.274613             0.077378
H            -3.350000            -8.227241             0.072034
C            -0.700000            -8.487049             0.021893
C             0.700000            -8.487049             0.044754
H            -1.250000            -9.439677             0.022615
C             1.400000            -9.699485             0.096836
C             2.800000            -9.699485             0.009160
H             0.850000           -10.652112             0.031151
C             3.500000           -10.911920             0.018024
C             4.900000           -10.911920             0.058347
H             2.950000           -11.864548             0.057936
H             5.450000           -11.864548             0.026774
