90
isomero_19_12
C             0.700000             1.212436             0.042818
C            -0.700000             1.212436             0.078523
C            -1.400000             0.000000             0.022972
C            -0.700000            -1.212436             0.075085
C             0.700000            -1.212436             0.043164
C             1.400000            -0.000000             0.076509
H             1.250000             2.165064             0.015788
H            -1.250000             2.165064             0.033525
C             2.800000             0.000000             0.072280
C             1.400000            -2.424871             0.038311
C             2.800000            -2.424871             0.007846
C             3.500000            -1.212436             0.004668
H             3.350000             0.952628             0.023105
C             4.900000            -1.212436             0.077242
C             3.500000            -3.637307             0.078884
C             4.900000            -3.637307             0.064850
C             5.600000            -2.424871             0.074814
H             5.450000            -0.259808             0.070397
C             7.000000            -2.424871             0.034393
C             5.600000            -4.849742             0.080993
C             7.000000            -4.849742             0.024107
C             7.700000            -3.637307             0.054554
H             7.550000            -1.472243             0.040316
C             9.100000            -3.637307             0.052833
C             7.700000            -6.062178             0.096710
C             9.100000            -6.062178             0.048726
C             9.800000            -4.849742             0.010534
H             9.650000            -2.684679             0.043310
C            11.200000            -4.849742             0.092631
C             9.800000            -7.274613             0.094389
C            11.200000            -7.274613             0.007551
C            11.900000            -6.062178             0.079324
H            11.750000            -3.897114             0.065517
H            11.750000            -8.227241             0.091062
H            13.000000            -6.062178             0.088131
C            -2.800000             0.000000             0.016775
C            -3.500000            -1.212436             0.073388
C            -2.800000            -2.424871             0.019231
C            -1.400000            -2.424871             0.052405
H            -3.350000             0.952628             0.045678
C            -0.700000            -3.637307             0.096563
C             0.700000            -3.637307             0.058216
C             1.400000            -4.849742             0.096197
C             2.800000            -4.849742             0.068019
C             3.500000            -6.062178             0.040394
C             4.900000            -6.062178             0.012541
C             5.600000            -7.274613             0.046728
C             7.000000            -7.274613             0.095146
C             7.700000            -8.487049             0.089098
C             9.100000            -8.487049             0.027733
H             9.650000            -9.439677             0.030258
N            -4.900000            -1.212436             0.019509
B            -5.600000            -2.424871             0.039314
C            -4.900000            -3.637307             0.096601
C            -3.500000            -3.637307             0.057690
H            -5.450000            -0.259808             0.001337
C            -2.800000            -4.849742             0.092035
C            -1.400000            -4.849742             0.025482
C            -0.700000            -6.062178             0.045188
C             0.700000            -6.062178             0.034129
C             1.400000            -7.274613             0.039207
C             2.800000            -7.274613             0.029959
C             3.500000            -8.487049             0.003131
C             4.900000            -8.487049             0.053956
C             5.600000            -9.699485             0.091583
C             7.000000            -9.699485             0.028479
H             7.550000           -10.652112             0.091195
C            -7.000000            -2.424871             0.060148
C            -7.700000            -3.637307             0.013151
C            -7.000000            -4.849742             0.001664
C            -5.600000            -4.849742             0.073946
H            -7.550000            -1.472243             0.004392
H            -8.800000            -3.637307             0.022935
H            -7.550000            -5.802370             0.017399
C            -4.900000            -6.062178             0.048520
C            -3.500000            -6.062178             0.072451
H            -5.450000            -7.014806             0.055421
C            -2.800000            -7.274613             0.023375
C            -1.400000            -7.274613             0.028088
H            -3.350000            -8.227241             0.008739
C            -0.700000            -8.487049             0.090930
C             0.700000            -8.487049             0.039127
H            -1.250000            -9.439677             0.089802
C             1.400000            -9.699485             0.074169
C             2.800000            -9.699485             0.095823
H             0.850000           -10.652112             0.082077
C             3.500000           -10.911920             0.031906
C             4.900000           -10.911920             0.012998
H             2.950000           -11.864548             0.077721
H             5.450000           -11.864548             0.093817
