90
isomero_1_4
B             0.700000             1.212436             0.009911
C            -0.700000             1.212436             0.066081
C            -1.400000             0.000000             0.068103
C            -0.700000            -1.212436             0.066734
C             0.700000            -1.212436             0.046228
N             1.400000            -0.000000             0.094593
H             1.250000             2.165064             0.062805
H            -1.250000             2.165064             0.002387
C             2.800000             0.000000             0.001734
C             1.400000            -2.424871             0.005316
C             2.800000            -2.424871             0.076891
C             3.500000            -1.212436             0.058947
H             3.350000             0.952628             0.041557
C             4.900000            -1.212436             0.081725
C             3.500000            -3.637307             0.081991
C             4.900000            -3.637307             0.044447
C             5.600000            -2.424871             0.098138
H             5.450000            -0.259808             0.056444
C             7.000000            -2.424871             0.093853
C             5.600000            -4.849742             0.030406
C             7.000000            -4.849742             0.084581
C             7.700000            -3.637307             0.050837
H             7.550000            -1.472243             0.098236
C             9.100000            -3.637307             0.033175
C             7.700000            -6.062178             0.041818
C             9.100000            -6.062178             0.085827
C             9.800000            -4.849742             0.048401
H             9.650000            -2.684679             0.099187
C            11.200000            -4.849742             0.061128
C             9.800000            -7.274613             0.030954
C            11.200000            -7.274613             0.071569
C            11.900000            -6.062178             0.016171
H            11.750000            -3.897114             0.020991
H            11.750000            -8.227241             0.016301
H            13.000000            -6.062178             0.031985
C            -2.800000             0.000000             0.062436
C            -3.500000            -1.212436             0.006229
C            -2.800000            -2.424871             0.020491
C            -1.400000            -2.424871             0.065093
H            -3.350000             0.952628             0.023632
C            -0.700000            -3.637307             0.016792
C             0.700000            -3.637307             0.026111
C             1.400000            -4.849742             0.026247
C             2.800000            -4.849742             0.074649
C             3.500000            -6.062178             0.012458
C             4.900000            -6.062178             0.045644
C             5.600000            -7.274613             0.059019
C             7.000000            -7.274613             0.084241
C             7.700000            -8.487049             0.086643
C             9.100000            -8.487049             0.071711
H             9.650000            -9.439677             0.084696
C            -4.900000            -1.212436             0.013849
C            -5.600000            -2.424871             0.013420
C            -4.900000            -3.637307             0.026344
C            -3.500000            -3.637307             0.025715
H            -5.450000            -0.259808             0.013444
C            -2.800000            -4.849742             0.086352
C            -1.400000            -4.849742             0.058185
C            -0.700000            -6.062178             0.094110
C             0.700000            -6.062178             0.049751
C             1.400000            -7.274613             0.071286
C             2.800000            -7.274613             0.006160
C             3.500000            -8.487049             0.004527
C             4.900000            -8.487049             0.093020
C             5.600000            -9.699485             0.000628
C             7.000000            -9.699485             0.038900
H             7.550000           -10.652112             0.046812
C            -7.000000            -2.424871             0.028468
C            -7.700000            -3.637307             0.085307
C            -7.000000            -4.849742             0.045615
C            -5.600000            -4.849742             0.020213
H            -7.550000            -1.472243             0.083408
H            -8.800000            -3.637307             0.000225
H            -7.550000            -5.802370             0.085297
C            -4.900000            -6.062178             0.046909
C            -3.500000            -6.062178             0.073024
H            -5.450000            -7.014806             0.056304
C            -2.800000            -7.274613             0.002999
C            -1.400000            -7.274613             0.087284
H            -3.350000            -8.227241             0.043840
C            -0.700000            -8.487049             0.071524
C             0.700000            -8.487049             0.006631
H            -1.250000            -9.439677             0.094222
C             1.400000            -9.699485             0.078347
C             2.800000            -9.699485             0.095064
H             0.850000           -10.652112             0.037333
C             3.500000           -10.911920             0.057097
C             4.900000           -10.911920             0.001939
H             2.950000           -11.864548             0.048521
H             5.450000           -11.864548             0.019900
