90
isomero_1_2
C             0.700000             1.212436             0.022382
C            -0.700000             1.212436             0.051052
C            -1.400000             0.000000             0.061515
C            -0.700000            -1.212436             0.026121
C             0.700000            -1.212436             0.091058
C             1.400000            -0.000000             0.007657
H             1.250000             2.165064             0.049464
H            -1.250000             2.165064             0.002905
C             2.800000             0.000000             0.053389
C             1.400000            -2.424871             0.036843
C             2.800000            -2.424871             0.017791
C             3.500000            -1.212436             0.024298
H             3.350000             0.952628             0.056926
C             4.900000            -1.212436             0.006624
C             3.500000            -3.637307             0.020178
C             4.900000            -3.637307             0.083904
C             5.600000            -2.424871             0.072399
H             5.450000            -0.259808             0.076193
C             7.000000            -2.424871             0.032309
C             5.600000            -4.849742             0.071912
C             7.000000            -4.849742             0.021257
C             7.700000            -3.637307             0.029512
H             7.550000            -1.472243             0.031613
C             9.100000            -3.637307             0.019391
C             7.700000            -6.062178             0.026986
C             9.100000            -6.062178             0.006205
C             9.800000            -4.849742             0.042061
H             9.650000            -2.684679             0.084775
C            11.200000            -4.849742             0.035117
C             9.800000            -7.274613             0.092537
C            11.200000            -7.274613             0.066851
C            11.900000            -6.062178             0.056512
H            11.750000            -3.897114             0.017084
H            11.750000            -8.227241             0.048996
H            13.000000            -6.062178             0.094527
C            -2.800000             0.000000             0.068060
C            -3.500000            -1.212436             0.086798
C            -2.800000            -2.424871             0.097380
C            -1.400000            -2.424871             0.043240
H            -3.350000             0.952628             0.078604
C            -0.700000            -3.637307             0.059789
C             0.700000            -3.637307             0.065446
C             1.400000            -4.849742             0.006130
C             2.800000            -4.849742             0.035624
C             3.500000            -6.062178             0.046126
C             4.900000            -6.062178             0.033873
C             5.600000            -7.274613             0.003955
C             7.000000            -7.274613             0.040077
C             7.700000            -8.487049             0.084449
C             9.100000            -8.487049             0.045647
H             9.650000            -9.439677             0.080123
C            -4.900000            -1.212436             0.037759
C            -5.600000            -2.424871             0.055842
C            -4.900000            -3.637307             0.040293
C            -3.500000            -3.637307             0.074096
H            -5.450000            -0.259808             0.079172
C            -2.800000            -4.849742             0.065255
C            -1.400000            -4.849742             0.098587
C            -0.700000            -6.062178             0.098281
C             0.700000            -6.062178             0.044768
C             1.400000            -7.274613             0.098035
C             2.800000            -7.274613             0.084590
C             3.500000            -8.487049             0.003563
C             4.900000            -8.487049             0.042377
C             5.600000            -9.699485             0.095804
C             7.000000            -9.699485             0.080904
H             7.550000           -10.652112             0.029951
C            -7.000000            -2.424871             0.022598
C            -7.700000            -3.637307             0.017860
C            -7.000000            -4.849742             0.038715
C            -5.600000            -4.849742             0.024547
H            -7.550000            -1.472243             0.049791
H            -8.800000            -3.637307             0.040731
H            -7.550000            -5.802370             0.079486
C            -4.900000            -6.062178             0.056358
C            -3.500000            -6.062178             0.063623
H            -5.450000            -7.014806             0.012973
C            -2.800000            -7.274613             0.042283
C            -1.400000            -7.274613             0.041236
H            -3.350000            -8.227241             0.023445
C            -0.700000            -8.487049             0.033502
C             0.700000            -8.487049             0.060667
H            -1.250000            -9.439677             0.050013
C             1.400000            -9.699485             0.081881
C             2.800000            -9.699485             0.023787
H             0.850000           -10.652112             0.036151
C             3.500000           -10.911920             0.046117
C             4.900000           -10.911920             0.074187
H             2.950000           -11.864548             0.066402
H             5.450000           -11.864548             0.010537
