106
isomero_28_19
C             0.700000             1.212436             0.091013
C            -0.700000             1.212436             0.018042
C            -1.400000             0.000000             0.030421
C            -0.700000            -1.212436             0.072943
C             0.700000            -1.212436             0.007575
C             1.400000            -0.000000             0.008309
H             1.250000             2.165064             0.072776
H            -1.250000             2.165064             0.023347
C             2.800000             0.000000             0.040144
C             1.400000            -2.424871             0.091029
C             2.800000            -2.424871             0.005590
C             3.500000            -1.212436             0.023776
H             3.350000             0.952628             0.011677
C             4.900000            -1.212436             0.078571
C             3.500000            -3.637307             0.074927
C             4.900000            -3.637307             0.035419
C             5.600000            -2.424871             0.091415
H             5.450000            -0.259808             0.095814
C             7.000000            -2.424871             0.078653
C             5.600000            -4.849742             0.029651
C             7.000000            -4.849742             0.063092
C             7.700000            -3.637307             0.026913
H             7.550000            -1.472243             0.016668
C             9.100000            -3.637307             0.052707
C             7.700000            -6.062178             0.030178
C             9.100000            -6.062178             0.050311
C             9.800000            -4.849742             0.010330
H             9.650000            -2.684679             0.055085
C            11.200000            -4.849742             0.000614
C             9.800000            -7.274613             0.030555
C            11.200000            -7.274613             0.096266
C            11.900000            -6.062178             0.045264
H            11.750000            -3.897114             0.043199
H            11.750000            -8.227241             0.067683
H            13.000000            -6.062178             0.025261
C            -2.800000             0.000000             0.033069
C            -3.500000            -1.212436             0.001883
C            -2.800000            -2.424871             0.092460
C            -1.400000            -2.424871             0.038306
H            -3.350000             0.952628             0.043500
C            -0.700000            -3.637307             0.039599
C             0.700000            -3.637307             0.000025
C             1.400000            -4.849742             0.059482
C             2.800000            -4.849742             0.015790
C             3.500000            -6.062178             0.097445
C             4.900000            -6.062178             0.065733
C             5.600000            -7.274613             0.054206
C             7.000000            -7.274613             0.034704
C             7.700000            -8.487049             0.095391
C             9.100000            -8.487049             0.076656
H             9.650000            -9.439677             0.083795
C            -4.900000            -1.212436             0.084386
N            -5.600000            -2.424871             0.099239
B            -4.900000            -3.637307             0.077476
C            -3.500000            -3.637307             0.039100
H            -5.450000            -0.259808             0.014634
C            -2.800000            -4.849742             0.027580
C            -1.400000            -4.849742             0.073111
C            -0.700000            -6.062178             0.010797
C             0.700000            -6.062178             0.008704
C             1.400000            -7.274613             0.014857
C             2.800000            -7.274613             0.039102
C             3.500000            -8.487049             0.038647
C             4.900000            -8.487049             0.078364
C             5.600000            -9.699485             0.011451
C             7.000000            -9.699485             0.058401
H             7.550000           -10.652112             0.017518
C            -7.000000            -2.424871             0.017845
C            -7.700000            -3.637307             0.030901
C            -7.000000            -4.849742             0.091045
C            -5.600000            -4.849742             0.016443
H            -7.550000            -1.472243             0.003888
C            -4.900000            -6.062178             0.056757
C            -3.500000            -6.062178             0.009200
C            -2.800000            -7.274613             0.021422
C            -1.400000            -7.274613             0.046042
C            -0.700000            -8.487049             0.020993
C             0.700000            -8.487049             0.014412
C             1.400000            -9.699485             0.019608
C             2.800000            -9.699485             0.000101
C             3.500000           -10.911920             0.065465
C             4.900000           -10.911920             0.075818
H             5.450000           -11.864548             0.034876
C            -9.100000            -3.637307             0.040480
C            -9.800000            -4.849742             0.032486
C            -9.100000            -6.062178             0.047062
C            -7.700000            -6.062178             0.012779
H            -9.650000            -2.684679             0.018605
H           -10.900000            -4.849742             0.091909
H            -9.650000            -7.014806             0.087519
C            -7.000000            -7.274613             0.062019
C            -5.600000            -7.274613             0.048815
H            -7.550000            -8.227241             0.065018
C            -4.900000            -8.487049             0.036469
C            -3.500000            -8.487049             0.079723
H            -5.450000            -9.439677             0.090011
C            -2.800000            -9.699485             0.068658
C            -1.400000            -9.699485             0.060991
H            -3.350000           -10.652112             0.073637
C            -0.700000           -10.911920             0.076799
C             0.700000           -10.911920             0.078052
H            -1.250000           -11.864548             0.087429
C             1.400000           -12.124356             0.041836
C             2.800000           -12.124356             0.039066
H             0.850000           -13.076984             0.086990
H             3.350000           -13.076984             0.004055
