106
isomero_19_28
C             0.700000             1.212436             0.020932
C            -0.700000             1.212436             0.052873
C            -1.400000             0.000000             0.020288
C            -0.700000            -1.212436             0.006821
C             0.700000            -1.212436             0.081821
C             1.400000            -0.000000             0.045113
H             1.250000             2.165064             0.081256
H            -1.250000             2.165064             0.044083
C             2.800000             0.000000             0.033261
C             1.400000            -2.424871             0.095406
C             2.800000            -2.424871             0.097121
C             3.500000            -1.212436             0.042096
H             3.350000             0.952628             0.099367
C             4.900000            -1.212436             0.038145
C             3.500000            -3.637307             0.086605
C             4.900000            -3.637307             0.015678
C             5.600000            -2.424871             0.034971
H             5.450000            -0.259808             0.041371
C             7.000000            -2.424871             0.071808
C             5.600000            -4.849742             0.056340
C             7.000000            -4.849742             0.035008
C             7.700000            -3.637307             0.029109
H             7.550000            -1.472243             0.048456
C             9.100000            -3.637307             0.086103
C             7.700000            -6.062178             0.089022
C             9.100000            -6.062178             0.053360
C             9.800000            -4.849742             0.096251
H             9.650000            -2.684679             0.090647
C            11.200000            -4.849742             0.037398
C             9.800000            -7.274613             0.016023
C            11.200000            -7.274613             0.095722
C            11.900000            -6.062178             0.059532
H            11.750000            -3.897114             0.035544
H            11.750000            -8.227241             0.011449
H            13.000000            -6.062178             0.095684
C            -2.800000             0.000000             0.000677
C            -3.500000            -1.212436             0.064837
C            -2.800000            -2.424871             0.019123
C            -1.400000            -2.424871             0.073018
H            -3.350000             0.952628             0.041391
C            -0.700000            -3.637307             0.027850
C             0.700000            -3.637307             0.015963
C             1.400000            -4.849742             0.037056
C             2.800000            -4.849742             0.007993
C             3.500000            -6.062178             0.014668
C             4.900000            -6.062178             0.082214
C             5.600000            -7.274613             0.046650
C             7.000000            -7.274613             0.091474
C             7.700000            -8.487049             0.017529
C             9.100000            -8.487049             0.078214
H             9.650000            -9.439677             0.004938
C            -4.900000            -1.212436             0.025818
B            -5.600000            -2.424871             0.072188
N            -4.900000            -3.637307             0.029332
C            -3.500000            -3.637307             0.040896
H            -5.450000            -0.259808             0.028676
C            -2.800000            -4.849742             0.014145
C            -1.400000            -4.849742             0.094964
C            -0.700000            -6.062178             0.042126
C             0.700000            -6.062178             0.090043
C             1.400000            -7.274613             0.077896
C             2.800000            -7.274613             0.092197
C             3.500000            -8.487049             0.056031
C             4.900000            -8.487049             0.077880
C             5.600000            -9.699485             0.005575
C             7.000000            -9.699485             0.074246
H             7.550000           -10.652112             0.029157
C            -7.000000            -2.424871             0.002489
C            -7.700000            -3.637307             0.002090
C            -7.000000            -4.849742             0.027976
C            -5.600000            -4.849742             0.053213
H            -7.550000            -1.472243             0.075132
C            -4.900000            -6.062178             0.015368
C            -3.500000            -6.062178             0.095662
C            -2.800000            -7.274613             0.018023
C            -1.400000            -7.274613             0.039874
C            -0.700000            -8.487049             0.054164
C             0.700000            -8.487049             0.015591
C             1.400000            -9.699485             0.092660
C             2.800000            -9.699485             0.019411
C             3.500000           -10.911920             0.049991
C             4.900000           -10.911920             0.018185
H             5.450000           -11.864548             0.040107
C            -9.100000            -3.637307             0.067836
C            -9.800000            -4.849742             0.006287
C            -9.100000            -6.062178             0.099589
C            -7.700000            -6.062178             0.029793
H            -9.650000            -2.684679             0.067631
H           -10.900000            -4.849742             0.085574
H            -9.650000            -7.014806             0.018798
C            -7.000000            -7.274613             0.085887
C            -5.600000            -7.274613             0.069945
H            -7.550000            -8.227241             0.000953
C            -4.900000            -8.487049             0.099300
C            -3.500000            -8.487049             0.027055
H            -5.450000            -9.439677             0.082261
C            -2.800000            -9.699485             0.069925
C            -1.400000            -9.699485             0.080895
H            -3.350000           -10.652112             0.027867
C            -0.700000           -10.911920             0.008493
C             0.700000           -10.911920             0.002241
H            -1.250000           -11.864548             0.020143
C             1.400000           -12.124356             0.032668
C             2.800000           -12.124356             0.043262
H             0.850000           -13.076984             0.059559
H             3.350000           -13.076984             0.006597
