106
isomero_10_17
C             0.700000             1.212436             0.074125
C            -0.700000             1.212436             0.080783
C            -1.400000             0.000000             0.089726
B            -0.700000            -1.212436             0.037463
C             0.700000            -1.212436             0.082225
C             1.400000            -0.000000             0.077253
H             1.250000             2.165064             0.058148
H            -1.250000             2.165064             0.047760
C             2.800000             0.000000             0.068771
C             1.400000            -2.424871             0.095181
C             2.800000            -2.424871             0.091230
C             3.500000            -1.212436             0.080745
H             3.350000             0.952628             0.071301
C             4.900000            -1.212436             0.029423
C             3.500000            -3.637307             0.079143
C             4.900000            -3.637307             0.023037
C             5.600000            -2.424871             0.090297
H             5.450000            -0.259808             0.033966
C             7.000000            -2.424871             0.014158
C             5.600000            -4.849742             0.073586
C             7.000000            -4.849742             0.007512
C             7.700000            -3.637307             0.057007
H             7.550000            -1.472243             0.060368
C             9.100000            -3.637307             0.015172
C             7.700000            -6.062178             0.057800
C             9.100000            -6.062178             0.098897
C             9.800000            -4.849742             0.011540
H             9.650000            -2.684679             0.004838
C            11.200000            -4.849742             0.001643
C             9.800000            -7.274613             0.031065
C            11.200000            -7.274613             0.060617
C            11.900000            -6.062178             0.095358
H            11.750000            -3.897114             0.024099
H            11.750000            -8.227241             0.057386
H            13.000000            -6.062178             0.049318
C            -2.800000             0.000000             0.048813
C            -3.500000            -1.212436             0.015637
C            -2.800000            -2.424871             0.020497
N            -1.400000            -2.424871             0.046976
H            -3.350000             0.952628             0.040361
C            -0.700000            -3.637307             0.042892
C             0.700000            -3.637307             0.075783
C             1.400000            -4.849742             0.041200
C             2.800000            -4.849742             0.058525
C             3.500000            -6.062178             0.077392
C             4.900000            -6.062178             0.033876
C             5.600000            -7.274613             0.050719
C             7.000000            -7.274613             0.093303
C             7.700000            -8.487049             0.009232
C             9.100000            -8.487049             0.054276
H             9.650000            -9.439677             0.086890
C            -4.900000            -1.212436             0.054080
C            -5.600000            -2.424871             0.049070
C            -4.900000            -3.637307             0.094069
C            -3.500000            -3.637307             0.070506
H            -5.450000            -0.259808             0.022929
C            -2.800000            -4.849742             0.006533
C            -1.400000            -4.849742             0.062094
C            -0.700000            -6.062178             0.023665
C             0.700000            -6.062178             0.048205
C             1.400000            -7.274613             0.004392
C             2.800000            -7.274613             0.087533
C             3.500000            -8.487049             0.073612
C             4.900000            -8.487049             0.085375
C             5.600000            -9.699485             0.000842
C             7.000000            -9.699485             0.072333
H             7.550000           -10.652112             0.071785
C            -7.000000            -2.424871             0.093909
C            -7.700000            -3.637307             0.038263
C            -7.000000            -4.849742             0.060872
C            -5.600000            -4.849742             0.097971
H            -7.550000            -1.472243             0.040840
C            -4.900000            -6.062178             0.096139
C            -3.500000            -6.062178             0.028061
C            -2.800000            -7.274613             0.017796
C            -1.400000            -7.274613             0.017078
C            -0.700000            -8.487049             0.027849
C             0.700000            -8.487049             0.010163
C             1.400000            -9.699485             0.023781
C             2.800000            -9.699485             0.003560
C             3.500000           -10.911920             0.091448
C             4.900000           -10.911920             0.078325
H             5.450000           -11.864548             0.051929
C            -9.100000            -3.637307             0.094557
C            -9.800000            -4.849742             0.005831
C            -9.100000            -6.062178             0.076015
C            -7.700000            -6.062178             0.022207
H            -9.650000            -2.684679             0.018742
H           -10.900000            -4.849742             0.065160
H            -9.650000            -7.014806             0.088726
C            -7.000000            -7.274613             0.074837
C            -5.600000            -7.274613             0.091370
H            -7.550000            -8.227241             0.004016
C            -4.900000            -8.487049             0.067474
C            -3.500000            -8.487049             0.093293
H            -5.450000            -9.439677             0.094094
C            -2.800000            -9.699485             0.011636
C            -1.400000            -9.699485             0.008524
H            -3.350000           -10.652112             0.006551
C            -0.700000           -10.911920             0.035455
C             0.700000           -10.911920             0.010446
H            -1.250000           -11.864548             0.025390
C             1.400000           -12.124356             0.090888
C             2.800000           -12.124356             0.014032
H             0.850000           -13.076984             0.081746
H             3.350000           -13.076984             0.064361
