106
isomero_35_24
C             0.700000             1.212436             0.081071
C            -0.700000             1.212436             0.099249
C            -1.400000             0.000000             0.057363
C            -0.700000            -1.212436             0.049865
C             0.700000            -1.212436             0.003395
C             1.400000            -0.000000             0.080047
H             1.250000             2.165064             0.088467
H            -1.250000             2.165064             0.056021
C             2.800000             0.000000             0.020160
C             1.400000            -2.424871             0.053980
C             2.800000            -2.424871             0.053446
C             3.500000            -1.212436             0.015552
H             3.350000             0.952628             0.034873
C             4.900000            -1.212436             0.004209
N             3.500000            -3.637307             0.063970
C             4.900000            -3.637307             0.097511
C             5.600000            -2.424871             0.050116
H             5.450000            -0.259808             0.077510
C             7.000000            -2.424871             0.012455
C             5.600000            -4.849742             0.044676
C             7.000000            -4.849742             0.055130
C             7.700000            -3.637307             0.047521
H             7.550000            -1.472243             0.029200
C             9.100000            -3.637307             0.058074
C             7.700000            -6.062178             0.057491
C             9.100000            -6.062178             0.093265
C             9.800000            -4.849742             0.079264
H             9.650000            -2.684679             0.009420
C            11.200000            -4.849742             0.076620
C             9.800000            -7.274613             0.066101
C            11.200000            -7.274613             0.092112
C            11.900000            -6.062178             0.026494
H            11.750000            -3.897114             0.045200
H            11.750000            -8.227241             0.099546
H            13.000000            -6.062178             0.022402
C            -2.800000             0.000000             0.047880
C            -3.500000            -1.212436             0.028558
C            -2.800000            -2.424871             0.065019
C            -1.400000            -2.424871             0.091366
H            -3.350000             0.952628             0.082740
C            -0.700000            -3.637307             0.099764
C             0.700000            -3.637307             0.071376
C             1.400000            -4.849742             0.022409
B             2.800000            -4.849742             0.022912
C             3.500000            -6.062178             0.078643
C             4.900000            -6.062178             0.055024
C             5.600000            -7.274613             0.085814
C             7.000000            -7.274613             0.035436
C             7.700000            -8.487049             0.044944
C             9.100000            -8.487049             0.074327
H             9.650000            -9.439677             0.045632
C            -4.900000            -1.212436             0.046132
C            -5.600000            -2.424871             0.008877
C            -4.900000            -3.637307             0.000681
C            -3.500000            -3.637307             0.067806
H            -5.450000            -0.259808             0.018340
C            -2.800000            -4.849742             0.044221
C            -1.400000            -4.849742             0.080534
C            -0.700000            -6.062178             0.073916
C             0.700000            -6.062178             0.065817
C             1.400000            -7.274613             0.094688
C             2.800000            -7.274613             0.014454
C             3.500000            -8.487049             0.069532
C             4.900000            -8.487049             0.077359
C             5.600000            -9.699485             0.010038
C             7.000000            -9.699485             0.014616
H             7.550000           -10.652112             0.036076
C            -7.000000            -2.424871             0.047179
C            -7.700000            -3.637307             0.085191
C            -7.000000            -4.849742             0.074040
C            -5.600000            -4.849742             0.029171
H            -7.550000            -1.472243             0.071875
C            -4.900000            -6.062178             0.055291
C            -3.500000            -6.062178             0.056145
C            -2.800000            -7.274613             0.095520
C            -1.400000            -7.274613             0.036311
C            -0.700000            -8.487049             0.010614
C             0.700000            -8.487049             0.031264
C             1.400000            -9.699485             0.049754
C             2.800000            -9.699485             0.084388
C             3.500000           -10.911920             0.052128
C             4.900000           -10.911920             0.047620
H             5.450000           -11.864548             0.021495
C            -9.100000            -3.637307             0.016949
C            -9.800000            -4.849742             0.094623
C            -9.100000            -6.062178             0.079083
C            -7.700000            -6.062178             0.044481
H            -9.650000            -2.684679             0.017218
H           -10.900000            -4.849742             0.047674
H            -9.650000            -7.014806             0.091213
C            -7.000000            -7.274613             0.039214
C            -5.600000            -7.274613             0.036384
H            -7.550000            -8.227241             0.016568
C            -4.900000            -8.487049             0.057370
C            -3.500000            -8.487049             0.034556
H            -5.450000            -9.439677             0.005928
C            -2.800000            -9.699485             0.002096
C            -1.400000            -9.699485             0.060906
H            -3.350000           -10.652112             0.099731
C            -0.700000           -10.911920             0.016575
C             0.700000           -10.911920             0.066862
H            -1.250000           -11.864548             0.084815
C             1.400000           -12.124356             0.046534
C             2.800000           -12.124356             0.017841
H             0.850000           -13.076984             0.045556
H             3.350000           -13.076984             0.036186
