106
isomero_30_41
C             0.700000             1.212436             0.051996
C            -0.700000             1.212436             0.030153
C            -1.400000             0.000000             0.088815
C            -0.700000            -1.212436             0.072325
C             0.700000            -1.212436             0.099428
C             1.400000            -0.000000             0.066212
H             1.250000             2.165064             0.066910
H            -1.250000             2.165064             0.016741
C             2.800000             0.000000             0.069423
C             1.400000            -2.424871             0.021607
C             2.800000            -2.424871             0.057265
C             3.500000            -1.212436             0.028557
H             3.350000             0.952628             0.082281
C             4.900000            -1.212436             0.002933
C             3.500000            -3.637307             0.042906
C             4.900000            -3.637307             0.088993
C             5.600000            -2.424871             0.046978
H             5.450000            -0.259808             0.020747
C             7.000000            -2.424871             0.035307
C             5.600000            -4.849742             0.085080
C             7.000000            -4.849742             0.013236
C             7.700000            -3.637307             0.071204
H             7.550000            -1.472243             0.087303
C             9.100000            -3.637307             0.012027
C             7.700000            -6.062178             0.096367
C             9.100000            -6.062178             0.012812
C             9.800000            -4.849742             0.029291
H             9.650000            -2.684679             0.082440
C            11.200000            -4.849742             0.084354
C             9.800000            -7.274613             0.078428
C            11.200000            -7.274613             0.060310
C            11.900000            -6.062178             0.060260
H            11.750000            -3.897114             0.029662
H            11.750000            -8.227241             0.092688
H            13.000000            -6.062178             0.085275
C            -2.800000             0.000000             0.076301
C            -3.500000            -1.212436             0.000577
C            -2.800000            -2.424871             0.000252
C            -1.400000            -2.424871             0.086817
H            -3.350000             0.952628             0.008140
C            -0.700000            -3.637307             0.073957
C             0.700000            -3.637307             0.069830
C             1.400000            -4.849742             0.020654
C             2.800000            -4.849742             0.072149
C             3.500000            -6.062178             0.041376
C             4.900000            -6.062178             0.041311
C             5.600000            -7.274613             0.084749
C             7.000000            -7.274613             0.023681
C             7.700000            -8.487049             0.019424
C             9.100000            -8.487049             0.070922
H             9.650000            -9.439677             0.081222
C            -4.900000            -1.212436             0.070166
C            -5.600000            -2.424871             0.038040
C            -4.900000            -3.637307             0.016551
C            -3.500000            -3.637307             0.024966
H            -5.450000            -0.259808             0.090310
C            -2.800000            -4.849742             0.044741
C            -1.400000            -4.849742             0.036764
C            -0.700000            -6.062178             0.078147
C             0.700000            -6.062178             0.054560
C             1.400000            -7.274613             0.041257
C             2.800000            -7.274613             0.045072
C             3.500000            -8.487049             0.074722
C             4.900000            -8.487049             0.001814
C             5.600000            -9.699485             0.053106
C             7.000000            -9.699485             0.040103
H             7.550000           -10.652112             0.024469
C            -7.000000            -2.424871             0.015917
C            -7.700000            -3.637307             0.046216
C            -7.000000            -4.849742             0.073826
C            -5.600000            -4.849742             0.092433
H            -7.550000            -1.472243             0.091187
C            -4.900000            -6.062178             0.002408
C            -3.500000            -6.062178             0.087543
C            -2.800000            -7.274613             0.060622
C            -1.400000            -7.274613             0.045211
C            -0.700000            -8.487049             0.031939
C             0.700000            -8.487049             0.008453
C             1.400000            -9.699485             0.092666
C             2.800000            -9.699485             0.042509
C             3.500000           -10.911920             0.053525
C             4.900000           -10.911920             0.024293
H             5.450000           -11.864548             0.055434
B            -9.100000            -3.637307             0.073537
N            -9.800000            -4.849742             0.093108
C            -9.100000            -6.062178             0.085858
C            -7.700000            -6.062178             0.085915
H            -9.650000            -2.684679             0.075285
H           -10.900000            -4.849742             0.087912
H            -9.650000            -7.014806             0.033443
C            -7.000000            -7.274613             0.086609
C            -5.600000            -7.274613             0.024769
H            -7.550000            -8.227241             0.087210
C            -4.900000            -8.487049             0.037920
C            -3.500000            -8.487049             0.090035
H            -5.450000            -9.439677             0.037418
C            -2.800000            -9.699485             0.007742
C            -1.400000            -9.699485             0.022854
H            -3.350000           -10.652112             0.087912
C            -0.700000           -10.911920             0.020104
C             0.700000           -10.911920             0.092973
H            -1.250000           -11.864548             0.041371
C             1.400000           -12.124356             0.012162
C             2.800000           -12.124356             0.046562
H             0.850000           -13.076984             0.075387
H             3.350000           -13.076984             0.062023
