106
isomero_25_26
C             0.700000             1.212436             0.049188
C            -0.700000             1.212436             0.041204
C            -1.400000             0.000000             0.021760
C            -0.700000            -1.212436             0.085197
C             0.700000            -1.212436             0.076772
C             1.400000            -0.000000             0.076111
H             1.250000             2.165064             0.024715
H            -1.250000             2.165064             0.059225
C             2.800000             0.000000             0.047608
C             1.400000            -2.424871             0.056704
C             2.800000            -2.424871             0.041493
C             3.500000            -1.212436             0.032272
H             3.350000             0.952628             0.030623
C             4.900000            -1.212436             0.059280
C             3.500000            -3.637307             0.044093
C             4.900000            -3.637307             0.059974
C             5.600000            -2.424871             0.042484
H             5.450000            -0.259808             0.062407
C             7.000000            -2.424871             0.018415
C             5.600000            -4.849742             0.034181
C             7.000000            -4.849742             0.067774
C             7.700000            -3.637307             0.089688
H             7.550000            -1.472243             0.049668
C             9.100000            -3.637307             0.018033
C             7.700000            -6.062178             0.012786
C             9.100000            -6.062178             0.065183
C             9.800000            -4.849742             0.089585
H             9.650000            -2.684679             0.085634
C            11.200000            -4.849742             0.035675
C             9.800000            -7.274613             0.084619
C            11.200000            -7.274613             0.089376
C            11.900000            -6.062178             0.008115
H            11.750000            -3.897114             0.071841
H            11.750000            -8.227241             0.027974
H            13.000000            -6.062178             0.095415
C            -2.800000             0.000000             0.046647
C            -3.500000            -1.212436             0.094287
C            -2.800000            -2.424871             0.042678
C            -1.400000            -2.424871             0.076990
H            -3.350000             0.952628             0.072680
N            -0.700000            -3.637307             0.056664
B             0.700000            -3.637307             0.068584
C             1.400000            -4.849742             0.034359
C             2.800000            -4.849742             0.066527
C             3.500000            -6.062178             0.032166
C             4.900000            -6.062178             0.009718
C             5.600000            -7.274613             0.006202
C             7.000000            -7.274613             0.045214
C             7.700000            -8.487049             0.063666
C             9.100000            -8.487049             0.003139
H             9.650000            -9.439677             0.036009
C            -4.900000            -1.212436             0.017513
C            -5.600000            -2.424871             0.021453
C            -4.900000            -3.637307             0.082928
C            -3.500000            -3.637307             0.046876
H            -5.450000            -0.259808             0.052323
C            -2.800000            -4.849742             0.093668
C            -1.400000            -4.849742             0.069378
C            -0.700000            -6.062178             0.058202
C             0.700000            -6.062178             0.098876
C             1.400000            -7.274613             0.079698
C             2.800000            -7.274613             0.084773
C             3.500000            -8.487049             0.059428
C             4.900000            -8.487049             0.067863
C             5.600000            -9.699485             0.082942
C             7.000000            -9.699485             0.010654
H             7.550000           -10.652112             0.022128
C            -7.000000            -2.424871             0.020018
C            -7.700000            -3.637307             0.084257
C            -7.000000            -4.849742             0.077539
C            -5.600000            -4.849742             0.090486
H            -7.550000            -1.472243             0.010494
C            -4.900000            -6.062178             0.088150
C            -3.500000            -6.062178             0.066429
C            -2.800000            -7.274613             0.058736
C            -1.400000            -7.274613             0.065081
C            -0.700000            -8.487049             0.085618
C             0.700000            -8.487049             0.006680
C             1.400000            -9.699485             0.055163
C             2.800000            -9.699485             0.094344
C             3.500000           -10.911920             0.069582
C             4.900000           -10.911920             0.006291
H             5.450000           -11.864548             0.032497
C            -9.100000            -3.637307             0.084633
C            -9.800000            -4.849742             0.045027
C            -9.100000            -6.062178             0.008948
C            -7.700000            -6.062178             0.059001
H            -9.650000            -2.684679             0.046449
H           -10.900000            -4.849742             0.047973
H            -9.650000            -7.014806             0.050669
C            -7.000000            -7.274613             0.019874
C            -5.600000            -7.274613             0.046319
H            -7.550000            -8.227241             0.064288
C            -4.900000            -8.487049             0.083445
C            -3.500000            -8.487049             0.051465
H            -5.450000            -9.439677             0.059125
C            -2.800000            -9.699485             0.059469
C            -1.400000            -9.699485             0.075908
H            -3.350000           -10.652112             0.073455
C            -0.700000           -10.911920             0.060762
C             0.700000           -10.911920             0.055238
H            -1.250000           -11.864548             0.027033
C             1.400000           -12.124356             0.033769
C             2.800000           -12.124356             0.080762
H             0.850000           -13.076984             0.028290
H             3.350000           -13.076984             0.064699
