106
isomero_17_10
C             0.700000             1.212436             0.024945
C            -0.700000             1.212436             0.083052
C            -1.400000             0.000000             0.085178
N            -0.700000            -1.212436             0.003546
C             0.700000            -1.212436             0.044804
C             1.400000            -0.000000             0.009372
H             1.250000             2.165064             0.099317
H            -1.250000             2.165064             0.060955
C             2.800000             0.000000             0.047404
C             1.400000            -2.424871             0.018397
C             2.800000            -2.424871             0.012399
C             3.500000            -1.212436             0.054011
H             3.350000             0.952628             0.089222
C             4.900000            -1.212436             0.049669
C             3.500000            -3.637307             0.036590
C             4.900000            -3.637307             0.038482
C             5.600000            -2.424871             0.098839
H             5.450000            -0.259808             0.006034
C             7.000000            -2.424871             0.046367
C             5.600000            -4.849742             0.022532
C             7.000000            -4.849742             0.066478
C             7.700000            -3.637307             0.084599
H             7.550000            -1.472243             0.056399
C             9.100000            -3.637307             0.076024
C             7.700000            -6.062178             0.068354
C             9.100000            -6.062178             0.057435
C             9.800000            -4.849742             0.029244
H             9.650000            -2.684679             0.020407
C            11.200000            -4.849742             0.029054
C             9.800000            -7.274613             0.042295
C            11.200000            -7.274613             0.014042
C            11.900000            -6.062178             0.050220
H            11.750000            -3.897114             0.054305
H            11.750000            -8.227241             0.032247
H            13.000000            -6.062178             0.092309
C            -2.800000             0.000000             0.023955
C            -3.500000            -1.212436             0.030365
C            -2.800000            -2.424871             0.077915
B            -1.400000            -2.424871             0.012210
H            -3.350000             0.952628             0.056362
C            -0.700000            -3.637307             0.088817
C             0.700000            -3.637307             0.086015
C             1.400000            -4.849742             0.018852
C             2.800000            -4.849742             0.069134
C             3.500000            -6.062178             0.014385
C             4.900000            -6.062178             0.058070
C             5.600000            -7.274613             0.050360
C             7.000000            -7.274613             0.011044
C             7.700000            -8.487049             0.047439
C             9.100000            -8.487049             0.064560
H             9.650000            -9.439677             0.031040
C            -4.900000            -1.212436             0.031503
C            -5.600000            -2.424871             0.014498
C            -4.900000            -3.637307             0.080884
C            -3.500000            -3.637307             0.037338
H            -5.450000            -0.259808             0.059934
C            -2.800000            -4.849742             0.014130
C            -1.400000            -4.849742             0.078924
C            -0.700000            -6.062178             0.064983
C             0.700000            -6.062178             0.075300
C             1.400000            -7.274613             0.081901
C             2.800000            -7.274613             0.078345
C             3.500000            -8.487049             0.056477
C             4.900000            -8.487049             0.085923
C             5.600000            -9.699485             0.054978
C             7.000000            -9.699485             0.087416
H             7.550000           -10.652112             0.074807
C            -7.000000            -2.424871             0.080764
C            -7.700000            -3.637307             0.047394
C            -7.000000            -4.849742             0.099571
C            -5.600000            -4.849742             0.004836
H            -7.550000            -1.472243             0.032937
C            -4.900000            -6.062178             0.070214
C            -3.500000            -6.062178             0.081996
C            -2.800000            -7.274613             0.057928
C            -1.400000            -7.274613             0.098338
C            -0.700000            -8.487049             0.082114
C             0.700000            -8.487049             0.040920
C             1.400000            -9.699485             0.075974
C             2.800000            -9.699485             0.050311
C             3.500000           -10.911920             0.045072
C             4.900000           -10.911920             0.020200
H             5.450000           -11.864548             0.002971
C            -9.100000            -3.637307             0.032088
C            -9.800000            -4.849742             0.021910
C            -9.100000            -6.062178             0.092455
C            -7.700000            -6.062178             0.078437
H            -9.650000            -2.684679             0.037968
H           -10.900000            -4.849742             0.024888
H            -9.650000            -7.014806             0.031107
C            -7.000000            -7.274613             0.089938
C            -5.600000            -7.274613             0.085590
H            -7.550000            -8.227241             0.040371
C            -4.900000            -8.487049             0.060766
C            -3.500000            -8.487049             0.047785
H            -5.450000            -9.439677             0.084887
C            -2.800000            -9.699485             0.078325
C            -1.400000            -9.699485             0.038046
H            -3.350000           -10.652112             0.032843
C            -0.700000           -10.911920             0.081298
C             0.700000           -10.911920             0.038709
H            -1.250000           -11.864548             0.078915
C             1.400000           -12.124356             0.055477
C             2.800000           -12.124356             0.054261
H             0.850000           -13.076984             0.053054
H             3.350000           -13.076984             0.039439
