106
isomero_36_35
C             0.700000             1.212436             0.014614
C            -0.700000             1.212436             0.063292
C            -1.400000             0.000000             0.064008
C            -0.700000            -1.212436             0.090281
C             0.700000            -1.212436             0.037024
C             1.400000            -0.000000             0.073236
H             1.250000             2.165064             0.048638
H            -1.250000             2.165064             0.094427
C             2.800000             0.000000             0.089443
C             1.400000            -2.424871             0.016603
C             2.800000            -2.424871             0.084935
C             3.500000            -1.212436             0.083544
H             3.350000             0.952628             0.047101
C             4.900000            -1.212436             0.087247
C             3.500000            -3.637307             0.083850
C             4.900000            -3.637307             0.029235
C             5.600000            -2.424871             0.005084
H             5.450000            -0.259808             0.006186
C             7.000000            -2.424871             0.019149
C             5.600000            -4.849742             0.089675
C             7.000000            -4.849742             0.058040
C             7.700000            -3.637307             0.087566
H             7.550000            -1.472243             0.044434
C             9.100000            -3.637307             0.079836
C             7.700000            -6.062178             0.031719
C             9.100000            -6.062178             0.002494
C             9.800000            -4.849742             0.010174
H             9.650000            -2.684679             0.031285
C            11.200000            -4.849742             0.015090
C             9.800000            -7.274613             0.040524
C            11.200000            -7.274613             0.080727
C            11.900000            -6.062178             0.041537
H            11.750000            -3.897114             0.055616
H            11.750000            -8.227241             0.068653
H            13.000000            -6.062178             0.085985
C            -2.800000             0.000000             0.084227
C            -3.500000            -1.212436             0.039901
C            -2.800000            -2.424871             0.004621
C            -1.400000            -2.424871             0.021526
H            -3.350000             0.952628             0.052677
C            -0.700000            -3.637307             0.081718
C             0.700000            -3.637307             0.074032
B             1.400000            -4.849742             0.022074
N             2.800000            -4.849742             0.060993
C             3.500000            -6.062178             0.081270
C             4.900000            -6.062178             0.008374
C             5.600000            -7.274613             0.076583
C             7.000000            -7.274613             0.023272
C             7.700000            -8.487049             0.006398
C             9.100000            -8.487049             0.008659
H             9.650000            -9.439677             0.028797
C            -4.900000            -1.212436             0.021774
C            -5.600000            -2.424871             0.014790
C            -4.900000            -3.637307             0.057772
C            -3.500000            -3.637307             0.017945
H            -5.450000            -0.259808             0.000184
C            -2.800000            -4.849742             0.000158
C            -1.400000            -4.849742             0.049977
C            -0.700000            -6.062178             0.028367
C             0.700000            -6.062178             0.052073
C             1.400000            -7.274613             0.093545
C             2.800000            -7.274613             0.029480
C             3.500000            -8.487049             0.011782
C             4.900000            -8.487049             0.076820
C             5.600000            -9.699485             0.059879
C             7.000000            -9.699485             0.049118
H             7.550000           -10.652112             0.038212
C            -7.000000            -2.424871             0.027675
C            -7.700000            -3.637307             0.026295
C            -7.000000            -4.849742             0.074045
C            -5.600000            -4.849742             0.089845
H            -7.550000            -1.472243             0.091075
C            -4.900000            -6.062178             0.046554
C            -3.500000            -6.062178             0.075096
C            -2.800000            -7.274613             0.061367
C            -1.400000            -7.274613             0.061928
C            -0.700000            -8.487049             0.060765
C             0.700000            -8.487049             0.034666
C             1.400000            -9.699485             0.054759
C             2.800000            -9.699485             0.013215
C             3.500000           -10.911920             0.076688
C             4.900000           -10.911920             0.065370
H             5.450000           -11.864548             0.054616
C            -9.100000            -3.637307             0.080438
C            -9.800000            -4.849742             0.011538
C            -9.100000            -6.062178             0.013041
C            -7.700000            -6.062178             0.078452
H            -9.650000            -2.684679             0.085936
H           -10.900000            -4.849742             0.014658
H            -9.650000            -7.014806             0.065435
C            -7.000000            -7.274613             0.051861
C            -5.600000            -7.274613             0.000542
H            -7.550000            -8.227241             0.069641
C            -4.900000            -8.487049             0.076404
C            -3.500000            -8.487049             0.050483
H            -5.450000            -9.439677             0.091000
C            -2.800000            -9.699485             0.015273
C            -1.400000            -9.699485             0.022218
H            -3.350000           -10.652112             0.000928
C            -0.700000           -10.911920             0.081074
C             0.700000           -10.911920             0.093438
H            -1.250000           -11.864548             0.008545
C             1.400000           -12.124356             0.064841
C             2.800000           -12.124356             0.010507
H             0.850000           -13.076984             0.063512
H             3.350000           -13.076984             0.029169
