106
isomero_19_12
C             0.700000             1.212436             0.046150
C            -0.700000             1.212436             0.016581
C            -1.400000             0.000000             0.034488
C            -0.700000            -1.212436             0.081150
C             0.700000            -1.212436             0.014276
C             1.400000            -0.000000             0.075049
H             1.250000             2.165064             0.077399
H            -1.250000             2.165064             0.043891
C             2.800000             0.000000             0.009328
C             1.400000            -2.424871             0.038830
C             2.800000            -2.424871             0.003557
C             3.500000            -1.212436             0.093440
H             3.350000             0.952628             0.075040
C             4.900000            -1.212436             0.058500
C             3.500000            -3.637307             0.064137
C             4.900000            -3.637307             0.018499
C             5.600000            -2.424871             0.019184
H             5.450000            -0.259808             0.051579
C             7.000000            -2.424871             0.057533
C             5.600000            -4.849742             0.068104
C             7.000000            -4.849742             0.034015
C             7.700000            -3.637307             0.031754
H             7.550000            -1.472243             0.092398
C             9.100000            -3.637307             0.036005
C             7.700000            -6.062178             0.025568
C             9.100000            -6.062178             0.070978
C             9.800000            -4.849742             0.062128
H             9.650000            -2.684679             0.028597
C            11.200000            -4.849742             0.073842
C             9.800000            -7.274613             0.071806
C            11.200000            -7.274613             0.004960
C            11.900000            -6.062178             0.043498
H            11.750000            -3.897114             0.085720
H            11.750000            -8.227241             0.071331
H            13.000000            -6.062178             0.019484
C            -2.800000             0.000000             0.098999
C            -3.500000            -1.212436             0.062821
C            -2.800000            -2.424871             0.086800
C            -1.400000            -2.424871             0.014879
H            -3.350000             0.952628             0.069499
C            -0.700000            -3.637307             0.058910
C             0.700000            -3.637307             0.015419
C             1.400000            -4.849742             0.053578
C             2.800000            -4.849742             0.019372
C             3.500000            -6.062178             0.074078
C             4.900000            -6.062178             0.029103
C             5.600000            -7.274613             0.095821
C             7.000000            -7.274613             0.081260
C             7.700000            -8.487049             0.022341
C             9.100000            -8.487049             0.020382
H             9.650000            -9.439677             0.093935
N            -4.900000            -1.212436             0.005089
B            -5.600000            -2.424871             0.081370
C            -4.900000            -3.637307             0.001178
C            -3.500000            -3.637307             0.008573
H            -5.450000            -0.259808             0.071634
C            -2.800000            -4.849742             0.098278
C            -1.400000            -4.849742             0.058052
C            -0.700000            -6.062178             0.005093
C             0.700000            -6.062178             0.065140
C             1.400000            -7.274613             0.033120
C             2.800000            -7.274613             0.019625
C             3.500000            -8.487049             0.010760
C             4.900000            -8.487049             0.053459
C             5.600000            -9.699485             0.000557
C             7.000000            -9.699485             0.006830
H             7.550000           -10.652112             0.027720
C            -7.000000            -2.424871             0.098436
C            -7.700000            -3.637307             0.038873
C            -7.000000            -4.849742             0.059038
C            -5.600000            -4.849742             0.058662
H            -7.550000            -1.472243             0.033432
C            -4.900000            -6.062178             0.064122
C            -3.500000            -6.062178             0.015551
C            -2.800000            -7.274613             0.066105
C            -1.400000            -7.274613             0.071881
C            -0.700000            -8.487049             0.026292
C             0.700000            -8.487049             0.045441
C             1.400000            -9.699485             0.083355
C             2.800000            -9.699485             0.052018
C             3.500000           -10.911920             0.083744
C             4.900000           -10.911920             0.069452
H             5.450000           -11.864548             0.019705
C            -9.100000            -3.637307             0.004642
C            -9.800000            -4.849742             0.083387
C            -9.100000            -6.062178             0.009468
C            -7.700000            -6.062178             0.047571
H            -9.650000            -2.684679             0.016362
H           -10.900000            -4.849742             0.032404
H            -9.650000            -7.014806             0.009816
C            -7.000000            -7.274613             0.099000
C            -5.600000            -7.274613             0.089393
H            -7.550000            -8.227241             0.037398
C            -4.900000            -8.487049             0.002938
C            -3.500000            -8.487049             0.032981
H            -5.450000            -9.439677             0.039833
C            -2.800000            -9.699485             0.087095
C            -1.400000            -9.699485             0.050664
H            -3.350000           -10.652112             0.031936
C            -0.700000           -10.911920             0.070691
C             0.700000           -10.911920             0.044403
H            -1.250000           -11.864548             0.099665
C             1.400000           -12.124356             0.021752
C             2.800000           -12.124356             0.035928
H             0.850000           -13.076984             0.094379
H             3.350000           -13.076984             0.061440
