106
isomero_27_18
C             0.700000             1.212436             0.036388
C            -0.700000             1.212436             0.035125
C            -1.400000             0.000000             0.018132
C            -0.700000            -1.212436             0.082927
C             0.700000            -1.212436             0.082914
C             1.400000            -0.000000             0.035039
H             1.250000             2.165064             0.004416
H            -1.250000             2.165064             0.052897
C             2.800000             0.000000             0.099030
C             1.400000            -2.424871             0.010295
C             2.800000            -2.424871             0.083104
C             3.500000            -1.212436             0.087814
H             3.350000             0.952628             0.079247
C             4.900000            -1.212436             0.079516
C             3.500000            -3.637307             0.042114
C             4.900000            -3.637307             0.063374
C             5.600000            -2.424871             0.095984
H             5.450000            -0.259808             0.051593
C             7.000000            -2.424871             0.014142
C             5.600000            -4.849742             0.026470
C             7.000000            -4.849742             0.007766
C             7.700000            -3.637307             0.020008
H             7.550000            -1.472243             0.051474
C             9.100000            -3.637307             0.070671
C             7.700000            -6.062178             0.074786
C             9.100000            -6.062178             0.088418
C             9.800000            -4.849742             0.050368
H             9.650000            -2.684679             0.041427
C            11.200000            -4.849742             0.072374
C             9.800000            -7.274613             0.078363
C            11.200000            -7.274613             0.030976
C            11.900000            -6.062178             0.088317
H            11.750000            -3.897114             0.083466
H            11.750000            -8.227241             0.040870
H            13.000000            -6.062178             0.077392
C            -2.800000             0.000000             0.040591
C            -3.500000            -1.212436             0.016998
N            -2.800000            -2.424871             0.047668
C            -1.400000            -2.424871             0.073538
H            -3.350000             0.952628             0.037986
C            -0.700000            -3.637307             0.015842
C             0.700000            -3.637307             0.044806
C             1.400000            -4.849742             0.062493
C             2.800000            -4.849742             0.073224
C             3.500000            -6.062178             0.019179
C             4.900000            -6.062178             0.037425
C             5.600000            -7.274613             0.028787
C             7.000000            -7.274613             0.058790
C             7.700000            -8.487049             0.050290
C             9.100000            -8.487049             0.037670
H             9.650000            -9.439677             0.097658
C            -4.900000            -1.212436             0.013902
C            -5.600000            -2.424871             0.050071
C            -4.900000            -3.637307             0.066858
B            -3.500000            -3.637307             0.085285
H            -5.450000            -0.259808             0.094543
C            -2.800000            -4.849742             0.083624
C            -1.400000            -4.849742             0.051617
C            -0.700000            -6.062178             0.095568
C             0.700000            -6.062178             0.063501
C             1.400000            -7.274613             0.025614
C             2.800000            -7.274613             0.078572
C             3.500000            -8.487049             0.009376
C             4.900000            -8.487049             0.067424
C             5.600000            -9.699485             0.059824
C             7.000000            -9.699485             0.017874
H             7.550000           -10.652112             0.053505
C            -7.000000            -2.424871             0.074656
C            -7.700000            -3.637307             0.021632
C            -7.000000            -4.849742             0.059259
C            -5.600000            -4.849742             0.063511
H            -7.550000            -1.472243             0.041744
C            -4.900000            -6.062178             0.068781
C            -3.500000            -6.062178             0.059228
C            -2.800000            -7.274613             0.005619
C            -1.400000            -7.274613             0.072329
C            -0.700000            -8.487049             0.081707
C             0.700000            -8.487049             0.011268
C             1.400000            -9.699485             0.035000
C             2.800000            -9.699485             0.006835
C             3.500000           -10.911920             0.030441
C             4.900000           -10.911920             0.010943
H             5.450000           -11.864548             0.097974
C            -9.100000            -3.637307             0.037660
C            -9.800000            -4.849742             0.037028
C            -9.100000            -6.062178             0.073644
C            -7.700000            -6.062178             0.049445
H            -9.650000            -2.684679             0.020628
H           -10.900000            -4.849742             0.006192
H            -9.650000            -7.014806             0.051732
C            -7.000000            -7.274613             0.067624
C            -5.600000            -7.274613             0.055584
H            -7.550000            -8.227241             0.039334
C            -4.900000            -8.487049             0.052011
C            -3.500000            -8.487049             0.001660
H            -5.450000            -9.439677             0.049488
C            -2.800000            -9.699485             0.093856
C            -1.400000            -9.699485             0.028482
H            -3.350000           -10.652112             0.070119
C            -0.700000           -10.911920             0.042815
C             0.700000           -10.911920             0.051750
H            -1.250000           -11.864548             0.070329
C             1.400000           -12.124356             0.052167
C             2.800000           -12.124356             0.057120
H             0.850000           -13.076984             0.049021
H             3.350000           -13.076984             0.036340
