106
isomero_15_8
C             0.700000             1.212436             0.015339
C            -0.700000             1.212436             0.026526
C            -1.400000             0.000000             0.039666
C            -0.700000            -1.212436             0.077588
C             0.700000            -1.212436             0.000940
C             1.400000            -0.000000             0.046146
H             1.250000             2.165064             0.054187
H            -1.250000             2.165064             0.058885
C             2.800000             0.000000             0.048599
C             1.400000            -2.424871             0.027784
B             2.800000            -2.424871             0.040576
N             3.500000            -1.212436             0.086241
H             3.350000             0.952628             0.045207
C             4.900000            -1.212436             0.074922
C             3.500000            -3.637307             0.059945
C             4.900000            -3.637307             0.032789
C             5.600000            -2.424871             0.038019
H             5.450000            -0.259808             0.098649
C             7.000000            -2.424871             0.079435
C             5.600000            -4.849742             0.042999
C             7.000000            -4.849742             0.084399
C             7.700000            -3.637307             0.033747
H             7.550000            -1.472243             0.008699
C             9.100000            -3.637307             0.068404
C             7.700000            -6.062178             0.001230
C             9.100000            -6.062178             0.064638
C             9.800000            -4.849742             0.035939
H             9.650000            -2.684679             0.032455
C            11.200000            -4.849742             0.042570
C             9.800000            -7.274613             0.024767
C            11.200000            -7.274613             0.082929
C            11.900000            -6.062178             0.074194
H            11.750000            -3.897114             0.026559
H            11.750000            -8.227241             0.052388
H            13.000000            -6.062178             0.069413
C            -2.800000             0.000000             0.028330
C            -3.500000            -1.212436             0.087131
C            -2.800000            -2.424871             0.080786
C            -1.400000            -2.424871             0.068596
H            -3.350000             0.952628             0.010686
C            -0.700000            -3.637307             0.043448
C             0.700000            -3.637307             0.064942
C             1.400000            -4.849742             0.026028
C             2.800000            -4.849742             0.082386
C             3.500000            -6.062178             0.051708
C             4.900000            -6.062178             0.099932
C             5.600000            -7.274613             0.016875
C             7.000000            -7.274613             0.015145
C             7.700000            -8.487049             0.002260
C             9.100000            -8.487049             0.056942
H             9.650000            -9.439677             0.079732
C            -4.900000            -1.212436             0.004832
C            -5.600000            -2.424871             0.027206
C            -4.900000            -3.637307             0.035138
C            -3.500000            -3.637307             0.067392
H            -5.450000            -0.259808             0.089657
C            -2.800000            -4.849742             0.035713
C            -1.400000            -4.849742             0.095772
C            -0.700000            -6.062178             0.099847
C             0.700000            -6.062178             0.048974
C             1.400000            -7.274613             0.052441
C             2.800000            -7.274613             0.069550
C             3.500000            -8.487049             0.066684
C             4.900000            -8.487049             0.060315
C             5.600000            -9.699485             0.038966
C             7.000000            -9.699485             0.038345
H             7.550000           -10.652112             0.070336
C            -7.000000            -2.424871             0.038506
C            -7.700000            -3.637307             0.087122
C            -7.000000            -4.849742             0.002858
C            -5.600000            -4.849742             0.001771
H            -7.550000            -1.472243             0.032971
C            -4.900000            -6.062178             0.067896
C            -3.500000            -6.062178             0.096783
C            -2.800000            -7.274613             0.079731
C            -1.400000            -7.274613             0.058364
C            -0.700000            -8.487049             0.071979
C             0.700000            -8.487049             0.095874
C             1.400000            -9.699485             0.026592
C             2.800000            -9.699485             0.009995
C             3.500000           -10.911920             0.017673
C             4.900000           -10.911920             0.037265
H             5.450000           -11.864548             0.086636
C            -9.100000            -3.637307             0.026629
C            -9.800000            -4.849742             0.057393
C            -9.100000            -6.062178             0.010760
C            -7.700000            -6.062178             0.033802
H            -9.650000            -2.684679             0.006073
H           -10.900000            -4.849742             0.065433
H            -9.650000            -7.014806             0.057139
C            -7.000000            -7.274613             0.048680
C            -5.600000            -7.274613             0.021719
H            -7.550000            -8.227241             0.055147
C            -4.900000            -8.487049             0.002284
C            -3.500000            -8.487049             0.093058
H            -5.450000            -9.439677             0.006942
C            -2.800000            -9.699485             0.076992
C            -1.400000            -9.699485             0.098087
H            -3.350000           -10.652112             0.074793
C            -0.700000           -10.911920             0.031259
C             0.700000           -10.911920             0.073684
H            -1.250000           -11.864548             0.034821
C             1.400000           -12.124356             0.084948
C             2.800000           -12.124356             0.075069
H             0.850000           -13.076984             0.041951
H             3.350000           -13.076984             0.004738
