106
isomero_34_33
C             0.700000             1.212436             0.039131
C            -0.700000             1.212436             0.034254
C            -1.400000             0.000000             0.036524
C            -0.700000            -1.212436             0.037299
C             0.700000            -1.212436             0.051968
C             1.400000            -0.000000             0.070179
H             1.250000             2.165064             0.028868
H            -1.250000             2.165064             0.086604
C             2.800000             0.000000             0.082474
C             1.400000            -2.424871             0.036127
C             2.800000            -2.424871             0.065167
C             3.500000            -1.212436             0.037806
H             3.350000             0.952628             0.045461
C             4.900000            -1.212436             0.063320
C             3.500000            -3.637307             0.060793
C             4.900000            -3.637307             0.009417
C             5.600000            -2.424871             0.044197
H             5.450000            -0.259808             0.079346
C             7.000000            -2.424871             0.079698
B             5.600000            -4.849742             0.025832
N             7.000000            -4.849742             0.081173
C             7.700000            -3.637307             0.095629
H             7.550000            -1.472243             0.088686
C             9.100000            -3.637307             0.018630
C             7.700000            -6.062178             0.011608
C             9.100000            -6.062178             0.026548
C             9.800000            -4.849742             0.095260
H             9.650000            -2.684679             0.009282
C            11.200000            -4.849742             0.065985
C             9.800000            -7.274613             0.006806
C            11.200000            -7.274613             0.090305
C            11.900000            -6.062178             0.095944
H            11.750000            -3.897114             0.095589
H            11.750000            -8.227241             0.086632
H            13.000000            -6.062178             0.011926
C            -2.800000             0.000000             0.055251
C            -3.500000            -1.212436             0.075373
C            -2.800000            -2.424871             0.013819
C            -1.400000            -2.424871             0.069853
H            -3.350000             0.952628             0.078267
C            -0.700000            -3.637307             0.079897
C             0.700000            -3.637307             0.016145
C             1.400000            -4.849742             0.081612
C             2.800000            -4.849742             0.073930
C             3.500000            -6.062178             0.058325
C             4.900000            -6.062178             0.060010
C             5.600000            -7.274613             0.002632
C             7.000000            -7.274613             0.070853
C             7.700000            -8.487049             0.013931
C             9.100000            -8.487049             0.092471
H             9.650000            -9.439677             0.092416
C            -4.900000            -1.212436             0.029773
C            -5.600000            -2.424871             0.054379
C            -4.900000            -3.637307             0.021041
C            -3.500000            -3.637307             0.076400
H            -5.450000            -0.259808             0.063659
C            -2.800000            -4.849742             0.054558
C            -1.400000            -4.849742             0.090138
C            -0.700000            -6.062178             0.079271
C             0.700000            -6.062178             0.065675
C             1.400000            -7.274613             0.006619
C             2.800000            -7.274613             0.048458
C             3.500000            -8.487049             0.023855
C             4.900000            -8.487049             0.051378
C             5.600000            -9.699485             0.072605
C             7.000000            -9.699485             0.096818
H             7.550000           -10.652112             0.006548
C            -7.000000            -2.424871             0.085112
C            -7.700000            -3.637307             0.011310
C            -7.000000            -4.849742             0.065032
C            -5.600000            -4.849742             0.040155
H            -7.550000            -1.472243             0.015188
C            -4.900000            -6.062178             0.077100
C            -3.500000            -6.062178             0.085062
C            -2.800000            -7.274613             0.027395
C            -1.400000            -7.274613             0.006615
C            -0.700000            -8.487049             0.083838
C             0.700000            -8.487049             0.061729
C             1.400000            -9.699485             0.052878
C             2.800000            -9.699485             0.024418
C             3.500000           -10.911920             0.026602
C             4.900000           -10.911920             0.086447
H             5.450000           -11.864548             0.025333
C            -9.100000            -3.637307             0.093726
C            -9.800000            -4.849742             0.087192
C            -9.100000            -6.062178             0.021962
C            -7.700000            -6.062178             0.004696
H            -9.650000            -2.684679             0.090762
H           -10.900000            -4.849742             0.085742
H            -9.650000            -7.014806             0.056029
C            -7.000000            -7.274613             0.039765
C            -5.600000            -7.274613             0.047913
H            -7.550000            -8.227241             0.061098
C            -4.900000            -8.487049             0.066404
C            -3.500000            -8.487049             0.039542
H            -5.450000            -9.439677             0.057462
C            -2.800000            -9.699485             0.063549
C            -1.400000            -9.699485             0.042851
H            -3.350000           -10.652112             0.018312
C            -0.700000           -10.911920             0.078547
C             0.700000           -10.911920             0.052576
H            -1.250000           -11.864548             0.096668
C             1.400000           -12.124356             0.033033
C             2.800000           -12.124356             0.041508
H             0.850000           -13.076984             0.000411
H             3.350000           -13.076984             0.014793
