106
isomero_22_21
C             0.700000             1.212436             0.005784
C            -0.700000             1.212436             0.099534
C            -1.400000             0.000000             0.021453
C            -0.700000            -1.212436             0.076726
C             0.700000            -1.212436             0.098415
C             1.400000            -0.000000             0.015404
H             1.250000             2.165064             0.015437
H            -1.250000             2.165064             0.031182
C             2.800000             0.000000             0.014828
C             1.400000            -2.424871             0.080438
C             2.800000            -2.424871             0.051737
C             3.500000            -1.212436             0.035605
H             3.350000             0.952628             0.027096
C             4.900000            -1.212436             0.059354
C             3.500000            -3.637307             0.059522
C             4.900000            -3.637307             0.018235
C             5.600000            -2.424871             0.082046
H             5.450000            -0.259808             0.028321
C             7.000000            -2.424871             0.033254
C             5.600000            -4.849742             0.010672
C             7.000000            -4.849742             0.025053
B             7.700000            -3.637307             0.012847
H             7.550000            -1.472243             0.074058
N             9.100000            -3.637307             0.052453
C             7.700000            -6.062178             0.009459
C             9.100000            -6.062178             0.057318
C             9.800000            -4.849742             0.064721
H             9.650000            -2.684679             0.094127
C            11.200000            -4.849742             0.007744
C             9.800000            -7.274613             0.055395
C            11.200000            -7.274613             0.093474
C            11.900000            -6.062178             0.001778
H            11.750000            -3.897114             0.076645
H            11.750000            -8.227241             0.094782
H            13.000000            -6.062178             0.080952
C            -2.800000             0.000000             0.086227
C            -3.500000            -1.212436             0.001276
C            -2.800000            -2.424871             0.039885
C            -1.400000            -2.424871             0.066424
H            -3.350000             0.952628             0.012914
C            -0.700000            -3.637307             0.095338
C             0.700000            -3.637307             0.078981
C             1.400000            -4.849742             0.041246
C             2.800000            -4.849742             0.037764
C             3.500000            -6.062178             0.031530
C             4.900000            -6.062178             0.026067
C             5.600000            -7.274613             0.060144
C             7.000000            -7.274613             0.009692
C             7.700000            -8.487049             0.077348
C             9.100000            -8.487049             0.062710
H             9.650000            -9.439677             0.085220
C            -4.900000            -1.212436             0.089693
C            -5.600000            -2.424871             0.065581
C            -4.900000            -3.637307             0.042419
C            -3.500000            -3.637307             0.042950
H            -5.450000            -0.259808             0.045990
C            -2.800000            -4.849742             0.041738
C            -1.400000            -4.849742             0.029585
C            -0.700000            -6.062178             0.080703
C             0.700000            -6.062178             0.000842
C             1.400000            -7.274613             0.085380
C             2.800000            -7.274613             0.041943
C             3.500000            -8.487049             0.020267
C             4.900000            -8.487049             0.053434
C             5.600000            -9.699485             0.017716
C             7.000000            -9.699485             0.062817
H             7.550000           -10.652112             0.030927
C            -7.000000            -2.424871             0.089600
C            -7.700000            -3.637307             0.036789
C            -7.000000            -4.849742             0.085300
C            -5.600000            -4.849742             0.055533
H            -7.550000            -1.472243             0.068268
C            -4.900000            -6.062178             0.028199
C            -3.500000            -6.062178             0.041698
C            -2.800000            -7.274613             0.055984
C            -1.400000            -7.274613             0.083424
C            -0.700000            -8.487049             0.007248
C             0.700000            -8.487049             0.096617
C             1.400000            -9.699485             0.019247
C             2.800000            -9.699485             0.096411
C             3.500000           -10.911920             0.097179
C             4.900000           -10.911920             0.076774
H             5.450000           -11.864548             0.044994
C            -9.100000            -3.637307             0.089475
C            -9.800000            -4.849742             0.074993
C            -9.100000            -6.062178             0.016601
C            -7.700000            -6.062178             0.084392
H            -9.650000            -2.684679             0.015971
H           -10.900000            -4.849742             0.008777
H            -9.650000            -7.014806             0.067367
C            -7.000000            -7.274613             0.065995
C            -5.600000            -7.274613             0.056418
H            -7.550000            -8.227241             0.073077
C            -4.900000            -8.487049             0.075243
C            -3.500000            -8.487049             0.007411
H            -5.450000            -9.439677             0.064097
C            -2.800000            -9.699485             0.013720
C            -1.400000            -9.699485             0.072161
H            -3.350000           -10.652112             0.028631
C            -0.700000           -10.911920             0.081920
C             0.700000           -10.911920             0.073680
H            -1.250000           -11.864548             0.064368
C             1.400000           -12.124356             0.091805
C             2.800000           -12.124356             0.073703
H             0.850000           -13.076984             0.068461
H             3.350000           -13.076984             0.043072
