106
isomero_1_4
B             0.700000             1.212436             0.069616
C            -0.700000             1.212436             0.033625
C            -1.400000             0.000000             0.042528
C            -0.700000            -1.212436             0.066963
C             0.700000            -1.212436             0.057277
N             1.400000            -0.000000             0.010782
H             1.250000             2.165064             0.077932
H            -1.250000             2.165064             0.044128
C             2.800000             0.000000             0.017440
C             1.400000            -2.424871             0.056509
C             2.800000            -2.424871             0.092810
C             3.500000            -1.212436             0.095011
H             3.350000             0.952628             0.028520
C             4.900000            -1.212436             0.022569
C             3.500000            -3.637307             0.054264
C             4.900000            -3.637307             0.029129
C             5.600000            -2.424871             0.081609
H             5.450000            -0.259808             0.074280
C             7.000000            -2.424871             0.097782
C             5.600000            -4.849742             0.055773
C             7.000000            -4.849742             0.098921
C             7.700000            -3.637307             0.042761
H             7.550000            -1.472243             0.005293
C             9.100000            -3.637307             0.015052
C             7.700000            -6.062178             0.041345
C             9.100000            -6.062178             0.012597
C             9.800000            -4.849742             0.045417
H             9.650000            -2.684679             0.043160
C            11.200000            -4.849742             0.028587
C             9.800000            -7.274613             0.030381
C            11.200000            -7.274613             0.031003
C            11.900000            -6.062178             0.022084
H            11.750000            -3.897114             0.025587
H            11.750000            -8.227241             0.052922
H            13.000000            -6.062178             0.039535
C            -2.800000             0.000000             0.082216
C            -3.500000            -1.212436             0.097987
C            -2.800000            -2.424871             0.032455
C            -1.400000            -2.424871             0.027408
H            -3.350000             0.952628             0.061979
C            -0.700000            -3.637307             0.009653
C             0.700000            -3.637307             0.070448
C             1.400000            -4.849742             0.004929
C             2.800000            -4.849742             0.059363
C             3.500000            -6.062178             0.072027
C             4.900000            -6.062178             0.089870
C             5.600000            -7.274613             0.020404
C             7.000000            -7.274613             0.063931
C             7.700000            -8.487049             0.004449
C             9.100000            -8.487049             0.099349
H             9.650000            -9.439677             0.004941
C            -4.900000            -1.212436             0.059849
C            -5.600000            -2.424871             0.029646
C            -4.900000            -3.637307             0.001064
C            -3.500000            -3.637307             0.078916
H            -5.450000            -0.259808             0.039195
C            -2.800000            -4.849742             0.003389
C            -1.400000            -4.849742             0.011943
C            -0.700000            -6.062178             0.006156
C             0.700000            -6.062178             0.085216
C             1.400000            -7.274613             0.033603
C             2.800000            -7.274613             0.072713
C             3.500000            -8.487049             0.035176
C             4.900000            -8.487049             0.011552
C             5.600000            -9.699485             0.049166
C             7.000000            -9.699485             0.072088
H             7.550000           -10.652112             0.018830
C            -7.000000            -2.424871             0.028588
C            -7.700000            -3.637307             0.086612
C            -7.000000            -4.849742             0.082593
C            -5.600000            -4.849742             0.089532
H            -7.550000            -1.472243             0.015821
C            -4.900000            -6.062178             0.065927
C            -3.500000            -6.062178             0.048068
C            -2.800000            -7.274613             0.061900
C            -1.400000            -7.274613             0.051070
C            -0.700000            -8.487049             0.001502
C             0.700000            -8.487049             0.094524
C             1.400000            -9.699485             0.040216
C             2.800000            -9.699485             0.038445
C             3.500000           -10.911920             0.059977
C             4.900000           -10.911920             0.059380
H             5.450000           -11.864548             0.002068
C            -9.100000            -3.637307             0.057462
C            -9.800000            -4.849742             0.008997
C            -9.100000            -6.062178             0.031936
C            -7.700000            -6.062178             0.010918
H            -9.650000            -2.684679             0.091026
H           -10.900000            -4.849742             0.059769
H            -9.650000            -7.014806             0.084455
C            -7.000000            -7.274613             0.049870
C            -5.600000            -7.274613             0.061673
H            -7.550000            -8.227241             0.045594
C            -4.900000            -8.487049             0.082392
C            -3.500000            -8.487049             0.069133
H            -5.450000            -9.439677             0.058284
C            -2.800000            -9.699485             0.025725
C            -1.400000            -9.699485             0.084159
H            -3.350000           -10.652112             0.034648
C            -0.700000           -10.911920             0.031991
C             0.700000           -10.911920             0.024495
H            -1.250000           -11.864548             0.034902
C             1.400000           -12.124356             0.017473
C             2.800000           -12.124356             0.078365
H             0.850000           -13.076984             0.007921
H             3.350000           -13.076984             0.037695
