106
isomero_16_25
C             0.700000             1.212436             0.032233
C            -0.700000             1.212436             0.035494
C            -1.400000             0.000000             0.091551
C            -0.700000            -1.212436             0.083379
C             0.700000            -1.212436             0.007649
C             1.400000            -0.000000             0.084140
H             1.250000             2.165064             0.029585
H            -1.250000             2.165064             0.007649
C             2.800000             0.000000             0.029038
B             1.400000            -2.424871             0.061601
C             2.800000            -2.424871             0.012354
C             3.500000            -1.212436             0.086118
H             3.350000             0.952628             0.044925
C             4.900000            -1.212436             0.075526
C             3.500000            -3.637307             0.064915
C             4.900000            -3.637307             0.021126
C             5.600000            -2.424871             0.030957
H             5.450000            -0.259808             0.044795
C             7.000000            -2.424871             0.073261
C             5.600000            -4.849742             0.087504
C             7.000000            -4.849742             0.011307
C             7.700000            -3.637307             0.079698
H             7.550000            -1.472243             0.006384
C             9.100000            -3.637307             0.038619
C             7.700000            -6.062178             0.032328
C             9.100000            -6.062178             0.072822
C             9.800000            -4.849742             0.010241
H             9.650000            -2.684679             0.098052
C            11.200000            -4.849742             0.083519
C             9.800000            -7.274613             0.078744
C            11.200000            -7.274613             0.047054
C            11.900000            -6.062178             0.001513
H            11.750000            -3.897114             0.020648
H            11.750000            -8.227241             0.029705
H            13.000000            -6.062178             0.066842
C            -2.800000             0.000000             0.076958
C            -3.500000            -1.212436             0.041196
C            -2.800000            -2.424871             0.021042
C            -1.400000            -2.424871             0.005685
H            -3.350000             0.952628             0.033064
C            -0.700000            -3.637307             0.086538
N             0.700000            -3.637307             0.061254
C             1.400000            -4.849742             0.072949
C             2.800000            -4.849742             0.026481
C             3.500000            -6.062178             0.012799
C             4.900000            -6.062178             0.096703
C             5.600000            -7.274613             0.038913
C             7.000000            -7.274613             0.023286
C             7.700000            -8.487049             0.099070
C             9.100000            -8.487049             0.040168
H             9.650000            -9.439677             0.099956
C            -4.900000            -1.212436             0.087445
C            -5.600000            -2.424871             0.064546
C            -4.900000            -3.637307             0.058045
C            -3.500000            -3.637307             0.012467
H            -5.450000            -0.259808             0.092654
C            -2.800000            -4.849742             0.031171
C            -1.400000            -4.849742             0.093395
C            -0.700000            -6.062178             0.044110
C             0.700000            -6.062178             0.068227
C             1.400000            -7.274613             0.073288
C             2.800000            -7.274613             0.085834
C             3.500000            -8.487049             0.022399
C             4.900000            -8.487049             0.092467
C             5.600000            -9.699485             0.097577
C             7.000000            -9.699485             0.019988
H             7.550000           -10.652112             0.018225
C            -7.000000            -2.424871             0.086589
C            -7.700000            -3.637307             0.077761
C            -7.000000            -4.849742             0.057560
C            -5.600000            -4.849742             0.085278
H            -7.550000            -1.472243             0.076032
C            -4.900000            -6.062178             0.009737
C            -3.500000            -6.062178             0.008196
C            -2.800000            -7.274613             0.043098
C            -1.400000            -7.274613             0.080566
C            -0.700000            -8.487049             0.022470
C             0.700000            -8.487049             0.064222
C             1.400000            -9.699485             0.030660
C             2.800000            -9.699485             0.055666
C             3.500000           -10.911920             0.088505
C             4.900000           -10.911920             0.038383
H             5.450000           -11.864548             0.077627
C            -9.100000            -3.637307             0.092965
C            -9.800000            -4.849742             0.035137
C            -9.100000            -6.062178             0.054806
C            -7.700000            -6.062178             0.056448
H            -9.650000            -2.684679             0.025153
H           -10.900000            -4.849742             0.049184
H            -9.650000            -7.014806             0.050314
C            -7.000000            -7.274613             0.060672
C            -5.600000            -7.274613             0.032027
H            -7.550000            -8.227241             0.044709
C            -4.900000            -8.487049             0.054876
C            -3.500000            -8.487049             0.054198
H            -5.450000            -9.439677             0.025085
C            -2.800000            -9.699485             0.084556
C            -1.400000            -9.699485             0.048721
H            -3.350000           -10.652112             0.080548
C            -0.700000           -10.911920             0.037967
C             0.700000           -10.911920             0.018302
H            -1.250000           -11.864548             0.052103
C             1.400000           -12.124356             0.017544
C             2.800000           -12.124356             0.007415
H             0.850000           -13.076984             0.097677
H             3.350000           -13.076984             0.024361
