106
isomero_39_28
C             0.700000             1.212436             0.018849
C            -0.700000             1.212436             0.043984
C            -1.400000             0.000000             0.043351
C            -0.700000            -1.212436             0.067695
C             0.700000            -1.212436             0.070226
C             1.400000            -0.000000             0.050668
H             1.250000             2.165064             0.083448
H            -1.250000             2.165064             0.017776
C             2.800000             0.000000             0.027475
C             1.400000            -2.424871             0.063108
C             2.800000            -2.424871             0.040216
C             3.500000            -1.212436             0.067862
H             3.350000             0.952628             0.091572
C             4.900000            -1.212436             0.044682
C             3.500000            -3.637307             0.073269
C             4.900000            -3.637307             0.028776
C             5.600000            -2.424871             0.075086
H             5.450000            -0.259808             0.041191
C             7.000000            -2.424871             0.002356
C             5.600000            -4.849742             0.023481
C             7.000000            -4.849742             0.005920
C             7.700000            -3.637307             0.038887
H             7.550000            -1.472243             0.045644
C             9.100000            -3.637307             0.020718
C             7.700000            -6.062178             0.053990
C             9.100000            -6.062178             0.036384
C             9.800000            -4.849742             0.015132
H             9.650000            -2.684679             0.050488
C            11.200000            -4.849742             0.016618
C             9.800000            -7.274613             0.069048
C            11.200000            -7.274613             0.073940
C            11.900000            -6.062178             0.021945
H            11.750000            -3.897114             0.072353
H            11.750000            -8.227241             0.093934
H            13.000000            -6.062178             0.022304
C            -2.800000             0.000000             0.081911
C            -3.500000            -1.212436             0.082335
C            -2.800000            -2.424871             0.074728
C            -1.400000            -2.424871             0.081029
H            -3.350000             0.952628             0.093504
C            -0.700000            -3.637307             0.008191
C             0.700000            -3.637307             0.091709
C             1.400000            -4.849742             0.092570
C             2.800000            -4.849742             0.072101
C             3.500000            -6.062178             0.014109
C             4.900000            -6.062178             0.032986
C             5.600000            -7.274613             0.064730
C             7.000000            -7.274613             0.009500
C             7.700000            -8.487049             0.063922
C             9.100000            -8.487049             0.061557
H             9.650000            -9.439677             0.029993
C            -4.900000            -1.212436             0.004527
C            -5.600000            -2.424871             0.024373
N            -4.900000            -3.637307             0.005320
C            -3.500000            -3.637307             0.023310
H            -5.450000            -0.259808             0.067746
C            -2.800000            -4.849742             0.031197
C            -1.400000            -4.849742             0.003357
C            -0.700000            -6.062178             0.075628
C             0.700000            -6.062178             0.015243
C             1.400000            -7.274613             0.092392
C             2.800000            -7.274613             0.035218
C             3.500000            -8.487049             0.074249
C             4.900000            -8.487049             0.097262
C             5.600000            -9.699485             0.054409
C             7.000000            -9.699485             0.034506
H             7.550000           -10.652112             0.080897
C            -7.000000            -2.424871             0.033941
C            -7.700000            -3.637307             0.089970
C            -7.000000            -4.849742             0.078429
B            -5.600000            -4.849742             0.020769
H            -7.550000            -1.472243             0.007729
C            -4.900000            -6.062178             0.043068
C            -3.500000            -6.062178             0.074397
C            -2.800000            -7.274613             0.017048
C            -1.400000            -7.274613             0.075415
C            -0.700000            -8.487049             0.038876
C             0.700000            -8.487049             0.005044
C             1.400000            -9.699485             0.044585
C             2.800000            -9.699485             0.000819
C             3.500000           -10.911920             0.022796
C             4.900000           -10.911920             0.043726
H             5.450000           -11.864548             0.080043
C            -9.100000            -3.637307             0.074676
C            -9.800000            -4.849742             0.016559
C            -9.100000            -6.062178             0.068319
C            -7.700000            -6.062178             0.019430
H            -9.650000            -2.684679             0.086133
H           -10.900000            -4.849742             0.006852
H            -9.650000            -7.014806             0.097087
C            -7.000000            -7.274613             0.025700
C            -5.600000            -7.274613             0.087687
H            -7.550000            -8.227241             0.008247
C            -4.900000            -8.487049             0.023309
C            -3.500000            -8.487049             0.050245
H            -5.450000            -9.439677             0.095208
C            -2.800000            -9.699485             0.051880
C            -1.400000            -9.699485             0.071633
H            -3.350000           -10.652112             0.064417
C            -0.700000           -10.911920             0.051250
C             0.700000           -10.911920             0.010640
H            -1.250000           -11.864548             0.034556
C             1.400000           -12.124356             0.072752
C             2.800000           -12.124356             0.063926
H             0.850000           -13.076984             0.085207
H             3.350000           -13.076984             0.091875
