106
isomero_20_19
C             0.700000             1.212436             0.083615
C            -0.700000             1.212436             0.039661
C            -1.400000             0.000000             0.077782
C            -0.700000            -1.212436             0.004806
C             0.700000            -1.212436             0.006035
C             1.400000            -0.000000             0.012245
H             1.250000             2.165064             0.019724
H            -1.250000             2.165064             0.031942
C             2.800000             0.000000             0.072570
C             1.400000            -2.424871             0.055209
C             2.800000            -2.424871             0.043532
C             3.500000            -1.212436             0.031339
H             3.350000             0.952628             0.002448
C             4.900000            -1.212436             0.091910
C             3.500000            -3.637307             0.019523
C             4.900000            -3.637307             0.066367
C             5.600000            -2.424871             0.014817
H             5.450000            -0.259808             0.022315
C             7.000000            -2.424871             0.020297
C             5.600000            -4.849742             0.077753
C             7.000000            -4.849742             0.035645
C             7.700000            -3.637307             0.065490
H             7.550000            -1.472243             0.004687
C             9.100000            -3.637307             0.004410
C             7.700000            -6.062178             0.003817
C             9.100000            -6.062178             0.058727
C             9.800000            -4.849742             0.066558
H             9.650000            -2.684679             0.096957
C            11.200000            -4.849742             0.020040
C             9.800000            -7.274613             0.033353
C            11.200000            -7.274613             0.055144
C            11.900000            -6.062178             0.068626
H            11.750000            -3.897114             0.086900
H            11.750000            -8.227241             0.012401
H            13.000000            -6.062178             0.014381
C            -2.800000             0.000000             0.008250
C            -3.500000            -1.212436             0.054577
C            -2.800000            -2.424871             0.020773
C            -1.400000            -2.424871             0.023234
H            -3.350000             0.952628             0.056321
C            -0.700000            -3.637307             0.077582
C             0.700000            -3.637307             0.012364
C             1.400000            -4.849742             0.021773
C             2.800000            -4.849742             0.083337
C             3.500000            -6.062178             0.034089
C             4.900000            -6.062178             0.027074
C             5.600000            -7.274613             0.089088
C             7.000000            -7.274613             0.089583
C             7.700000            -8.487049             0.086576
C             9.100000            -8.487049             0.052733
H             9.650000            -9.439677             0.046163
C            -4.900000            -1.212436             0.054708
N            -5.600000            -2.424871             0.080580
C            -4.900000            -3.637307             0.027660
C            -3.500000            -3.637307             0.013170
H            -5.450000            -0.259808             0.075769
C            -2.800000            -4.849742             0.011699
C            -1.400000            -4.849742             0.076942
C            -0.700000            -6.062178             0.091420
C             0.700000            -6.062178             0.097466
C             1.400000            -7.274613             0.056204
C             2.800000            -7.274613             0.027015
C             3.500000            -8.487049             0.061783
C             4.900000            -8.487049             0.046609
C             5.600000            -9.699485             0.013178
C             7.000000            -9.699485             0.041731
H             7.550000           -10.652112             0.069383
B            -7.000000            -2.424871             0.089285
C            -7.700000            -3.637307             0.003912
C            -7.000000            -4.849742             0.099279
C            -5.600000            -4.849742             0.096633
H            -7.550000            -1.472243             0.070276
C            -4.900000            -6.062178             0.065847
C            -3.500000            -6.062178             0.058806
C            -2.800000            -7.274613             0.098727
C            -1.400000            -7.274613             0.082426
C            -0.700000            -8.487049             0.028490
C             0.700000            -8.487049             0.028305
C             1.400000            -9.699485             0.086502
C             2.800000            -9.699485             0.049730
C             3.500000           -10.911920             0.039641
C             4.900000           -10.911920             0.059371
H             5.450000           -11.864548             0.064111
C            -9.100000            -3.637307             0.045863
C            -9.800000            -4.849742             0.045649
C            -9.100000            -6.062178             0.091218
C            -7.700000            -6.062178             0.055230
H            -9.650000            -2.684679             0.056476
H           -10.900000            -4.849742             0.029351
H            -9.650000            -7.014806             0.014493
C            -7.000000            -7.274613             0.032103
C            -5.600000            -7.274613             0.060957
H            -7.550000            -8.227241             0.071920
C            -4.900000            -8.487049             0.089397
C            -3.500000            -8.487049             0.030688
H            -5.450000            -9.439677             0.090905
C            -2.800000            -9.699485             0.055215
C            -1.400000            -9.699485             0.011994
H            -3.350000           -10.652112             0.004575
C            -0.700000           -10.911920             0.004250
C             0.700000           -10.911920             0.003803
H            -1.250000           -11.864548             0.027706
C             1.400000           -12.124356             0.095106
C             2.800000           -12.124356             0.050936
H             0.850000           -13.076984             0.082149
H             3.350000           -13.076984             0.079027
