106
isomero_23_24
C             0.700000             1.212436             0.055897
C            -0.700000             1.212436             0.004006
C            -1.400000             0.000000             0.053468
C            -0.700000            -1.212436             0.023068
C             0.700000            -1.212436             0.021304
C             1.400000            -0.000000             0.088411
H             1.250000             2.165064             0.095514
H            -1.250000             2.165064             0.035661
C             2.800000             0.000000             0.009301
C             1.400000            -2.424871             0.074392
C             2.800000            -2.424871             0.003912
C             3.500000            -1.212436             0.036289
H             3.350000             0.952628             0.019770
C             4.900000            -1.212436             0.000385
N             3.500000            -3.637307             0.067909
B             4.900000            -3.637307             0.007902
C             5.600000            -2.424871             0.033790
H             5.450000            -0.259808             0.026604
C             7.000000            -2.424871             0.079284
C             5.600000            -4.849742             0.022407
C             7.000000            -4.849742             0.073051
C             7.700000            -3.637307             0.058755
H             7.550000            -1.472243             0.081002
C             9.100000            -3.637307             0.036090
C             7.700000            -6.062178             0.014003
C             9.100000            -6.062178             0.068726
C             9.800000            -4.849742             0.046573
H             9.650000            -2.684679             0.053107
C            11.200000            -4.849742             0.055811
C             9.800000            -7.274613             0.062546
C            11.200000            -7.274613             0.089541
C            11.900000            -6.062178             0.009255
H            11.750000            -3.897114             0.073928
H            11.750000            -8.227241             0.088782
H            13.000000            -6.062178             0.001129
C            -2.800000             0.000000             0.078667
C            -3.500000            -1.212436             0.026890
C            -2.800000            -2.424871             0.098302
C            -1.400000            -2.424871             0.078536
H            -3.350000             0.952628             0.067781
C            -0.700000            -3.637307             0.090956
C             0.700000            -3.637307             0.027936
C             1.400000            -4.849742             0.076694
C             2.800000            -4.849742             0.008012
C             3.500000            -6.062178             0.032180
C             4.900000            -6.062178             0.053602
C             5.600000            -7.274613             0.093546
C             7.000000            -7.274613             0.048271
C             7.700000            -8.487049             0.019103
C             9.100000            -8.487049             0.063995
H             9.650000            -9.439677             0.052597
C            -4.900000            -1.212436             0.048865
C            -5.600000            -2.424871             0.032658
C            -4.900000            -3.637307             0.017214
C            -3.500000            -3.637307             0.000568
H            -5.450000            -0.259808             0.069269
C            -2.800000            -4.849742             0.042760
C            -1.400000            -4.849742             0.095017
C            -0.700000            -6.062178             0.084987
C             0.700000            -6.062178             0.010243
C             1.400000            -7.274613             0.058571
C             2.800000            -7.274613             0.083475
C             3.500000            -8.487049             0.045708
C             4.900000            -8.487049             0.097040
C             5.600000            -9.699485             0.086306
C             7.000000            -9.699485             0.093084
H             7.550000           -10.652112             0.027775
C            -7.000000            -2.424871             0.093914
C            -7.700000            -3.637307             0.044201
C            -7.000000            -4.849742             0.014995
C            -5.600000            -4.849742             0.041899
H            -7.550000            -1.472243             0.092080
C            -4.900000            -6.062178             0.041611
C            -3.500000            -6.062178             0.055775
C            -2.800000            -7.274613             0.014158
C            -1.400000            -7.274613             0.077541
C            -0.700000            -8.487049             0.094451
C             0.700000            -8.487049             0.079275
C             1.400000            -9.699485             0.047696
C             2.800000            -9.699485             0.056815
C             3.500000           -10.911920             0.088411
C             4.900000           -10.911920             0.061895
H             5.450000           -11.864548             0.076973
C            -9.100000            -3.637307             0.011547
C            -9.800000            -4.849742             0.018702
C            -9.100000            -6.062178             0.029752
C            -7.700000            -6.062178             0.081284
H            -9.650000            -2.684679             0.040281
H           -10.900000            -4.849742             0.051295
H            -9.650000            -7.014806             0.095469
C            -7.000000            -7.274613             0.000058
C            -5.600000            -7.274613             0.001086
H            -7.550000            -8.227241             0.019409
C            -4.900000            -8.487049             0.053643
C            -3.500000            -8.487049             0.084786
H            -5.450000            -9.439677             0.000253
C            -2.800000            -9.699485             0.086397
C            -1.400000            -9.699485             0.017029
H            -3.350000           -10.652112             0.006878
C            -0.700000           -10.911920             0.083154
C             0.700000           -10.911920             0.029855
H            -1.250000           -11.864548             0.024439
C             1.400000           -12.124356             0.041225
C             2.800000           -12.124356             0.058150
H             0.850000           -13.076984             0.091668
H             3.350000           -13.076984             0.081292
