106
isomero_32_43
C             0.700000             1.212436             0.033924
C            -0.700000             1.212436             0.050073
C            -1.400000             0.000000             0.008118
C            -0.700000            -1.212436             0.054230
C             0.700000            -1.212436             0.032613
C             1.400000            -0.000000             0.010950
H             1.250000             2.165064             0.012719
H            -1.250000             2.165064             0.040359
C             2.800000             0.000000             0.034056
C             1.400000            -2.424871             0.029858
C             2.800000            -2.424871             0.086838
C             3.500000            -1.212436             0.095138
H             3.350000             0.952628             0.047621
C             4.900000            -1.212436             0.054502
C             3.500000            -3.637307             0.019536
C             4.900000            -3.637307             0.055003
C             5.600000            -2.424871             0.016354
H             5.450000            -0.259808             0.096054
C             7.000000            -2.424871             0.016097
C             5.600000            -4.849742             0.050345
C             7.000000            -4.849742             0.059841
C             7.700000            -3.637307             0.082214
H             7.550000            -1.472243             0.038571
C             9.100000            -3.637307             0.075647
C             7.700000            -6.062178             0.072285
N             9.100000            -6.062178             0.097570
B             9.800000            -4.849742             0.065726
H             9.650000            -2.684679             0.068430
C            11.200000            -4.849742             0.073456
C             9.800000            -7.274613             0.024712
C            11.200000            -7.274613             0.099028
C            11.900000            -6.062178             0.094528
H            11.750000            -3.897114             0.055362
H            11.750000            -8.227241             0.092536
H            13.000000            -6.062178             0.084602
C            -2.800000             0.000000             0.005842
C            -3.500000            -1.212436             0.054253
C            -2.800000            -2.424871             0.039186
C            -1.400000            -2.424871             0.067107
H            -3.350000             0.952628             0.097466
C            -0.700000            -3.637307             0.021544
C             0.700000            -3.637307             0.027619
C             1.400000            -4.849742             0.097689
C             2.800000            -4.849742             0.027602
C             3.500000            -6.062178             0.048398
C             4.900000            -6.062178             0.077568
C             5.600000            -7.274613             0.028966
C             7.000000            -7.274613             0.085198
C             7.700000            -8.487049             0.094576
C             9.100000            -8.487049             0.059563
H             9.650000            -9.439677             0.066422
C            -4.900000            -1.212436             0.026908
C            -5.600000            -2.424871             0.004591
C            -4.900000            -3.637307             0.086947
C            -3.500000            -3.637307             0.024190
H            -5.450000            -0.259808             0.066342
C            -2.800000            -4.849742             0.087191
C            -1.400000            -4.849742             0.015838
C            -0.700000            -6.062178             0.061678
C             0.700000            -6.062178             0.078571
C             1.400000            -7.274613             0.064065
C             2.800000            -7.274613             0.033446
C             3.500000            -8.487049             0.050516
C             4.900000            -8.487049             0.025768
C             5.600000            -9.699485             0.038180
C             7.000000            -9.699485             0.065180
H             7.550000           -10.652112             0.001522
C            -7.000000            -2.424871             0.011013
C            -7.700000            -3.637307             0.030141
C            -7.000000            -4.849742             0.029383
C            -5.600000            -4.849742             0.069719
H            -7.550000            -1.472243             0.004552
C            -4.900000            -6.062178             0.046723
C            -3.500000            -6.062178             0.045161
C            -2.800000            -7.274613             0.051635
C            -1.400000            -7.274613             0.040916
C            -0.700000            -8.487049             0.072089
C             0.700000            -8.487049             0.071722
C             1.400000            -9.699485             0.012884
C             2.800000            -9.699485             0.062225
C             3.500000           -10.911920             0.010278
C             4.900000           -10.911920             0.082552
H             5.450000           -11.864548             0.086987
C            -9.100000            -3.637307             0.093983
C            -9.800000            -4.849742             0.011642
C            -9.100000            -6.062178             0.033371
C            -7.700000            -6.062178             0.007395
H            -9.650000            -2.684679             0.044905
H           -10.900000            -4.849742             0.064739
H            -9.650000            -7.014806             0.002704
C            -7.000000            -7.274613             0.075327
C            -5.600000            -7.274613             0.030305
H            -7.550000            -8.227241             0.041289
C            -4.900000            -8.487049             0.077104
C            -3.500000            -8.487049             0.091576
H            -5.450000            -9.439677             0.040966
C            -2.800000            -9.699485             0.004564
C            -1.400000            -9.699485             0.064755
H            -3.350000           -10.652112             0.009658
C            -0.700000           -10.911920             0.043158
C             0.700000           -10.911920             0.038916
H            -1.250000           -11.864548             0.093202
C             1.400000           -12.124356             0.072842
C             2.800000           -12.124356             0.067172
H             0.850000           -13.076984             0.013709
H             3.350000           -13.076984             0.087073
