106
isomero_40_29
C             0.700000             1.212436             0.080212
C            -0.700000             1.212436             0.065984
C            -1.400000             0.000000             0.047896
C            -0.700000            -1.212436             0.059110
C             0.700000            -1.212436             0.059284
C             1.400000            -0.000000             0.064454
H             1.250000             2.165064             0.051293
H            -1.250000             2.165064             0.081848
C             2.800000             0.000000             0.001815
C             1.400000            -2.424871             0.097312
C             2.800000            -2.424871             0.050597
C             3.500000            -1.212436             0.009140
H             3.350000             0.952628             0.032632
C             4.900000            -1.212436             0.072923
C             3.500000            -3.637307             0.079404
C             4.900000            -3.637307             0.066966
C             5.600000            -2.424871             0.041833
H             5.450000            -0.259808             0.005005
C             7.000000            -2.424871             0.087417
C             5.600000            -4.849742             0.043657
C             7.000000            -4.849742             0.009089
C             7.700000            -3.637307             0.097332
H             7.550000            -1.472243             0.024800
C             9.100000            -3.637307             0.092429
C             7.700000            -6.062178             0.075201
C             9.100000            -6.062178             0.064312
C             9.800000            -4.849742             0.073725
H             9.650000            -2.684679             0.092076
C            11.200000            -4.849742             0.051386
C             9.800000            -7.274613             0.096003
C            11.200000            -7.274613             0.057685
C            11.900000            -6.062178             0.026436
H            11.750000            -3.897114             0.090572
H            11.750000            -8.227241             0.096103
H            13.000000            -6.062178             0.072282
C            -2.800000             0.000000             0.092540
C            -3.500000            -1.212436             0.027195
C            -2.800000            -2.424871             0.047565
C            -1.400000            -2.424871             0.095149
H            -3.350000             0.952628             0.053808
C            -0.700000            -3.637307             0.054205
C             0.700000            -3.637307             0.040226
C             1.400000            -4.849742             0.018230
C             2.800000            -4.849742             0.013314
C             3.500000            -6.062178             0.024012
C             4.900000            -6.062178             0.067555
C             5.600000            -7.274613             0.055511
C             7.000000            -7.274613             0.036479
C             7.700000            -8.487049             0.038467
C             9.100000            -8.487049             0.055566
H             9.650000            -9.439677             0.032536
C            -4.900000            -1.212436             0.015187
C            -5.600000            -2.424871             0.097299
C            -4.900000            -3.637307             0.052024
C            -3.500000            -3.637307             0.076210
H            -5.450000            -0.259808             0.011427
C            -2.800000            -4.849742             0.065313
C            -1.400000            -4.849742             0.058974
C            -0.700000            -6.062178             0.060304
C             0.700000            -6.062178             0.085968
C             1.400000            -7.274613             0.012176
C             2.800000            -7.274613             0.073604
C             3.500000            -8.487049             0.099434
C             4.900000            -8.487049             0.015899
C             5.600000            -9.699485             0.048342
C             7.000000            -9.699485             0.040985
H             7.550000           -10.652112             0.092416
C            -7.000000            -2.424871             0.004316
N            -7.700000            -3.637307             0.016958
B            -7.000000            -4.849742             0.031215
C            -5.600000            -4.849742             0.080192
H            -7.550000            -1.472243             0.026519
C            -4.900000            -6.062178             0.002190
C            -3.500000            -6.062178             0.017379
C            -2.800000            -7.274613             0.006666
C            -1.400000            -7.274613             0.077051
C            -0.700000            -8.487049             0.096760
C             0.700000            -8.487049             0.038864
C             1.400000            -9.699485             0.082712
C             2.800000            -9.699485             0.064967
C             3.500000           -10.911920             0.073291
C             4.900000           -10.911920             0.042141
H             5.450000           -11.864548             0.064422
C            -9.100000            -3.637307             0.032804
C            -9.800000            -4.849742             0.001702
C            -9.100000            -6.062178             0.010248
C            -7.700000            -6.062178             0.075841
H            -9.650000            -2.684679             0.052055
H           -10.900000            -4.849742             0.083222
H            -9.650000            -7.014806             0.056329
C            -7.000000            -7.274613             0.061799
C            -5.600000            -7.274613             0.060414
H            -7.550000            -8.227241             0.012440
C            -4.900000            -8.487049             0.093354
C            -3.500000            -8.487049             0.077287
H            -5.450000            -9.439677             0.080672
C            -2.800000            -9.699485             0.013606
C            -1.400000            -9.699485             0.072471
H            -3.350000           -10.652112             0.018955
C            -0.700000           -10.911920             0.041031
C             0.700000           -10.911920             0.028614
H            -1.250000           -11.864548             0.076736
C             1.400000           -12.124356             0.095301
C             2.800000           -12.124356             0.056314
H             0.850000           -13.076984             0.026809
H             3.350000           -13.076984             0.098527
