106
isomero_23_14
C             0.700000             1.212436             0.030867
C            -0.700000             1.212436             0.077241
C            -1.400000             0.000000             0.003454
C            -0.700000            -1.212436             0.035212
C             0.700000            -1.212436             0.072497
C             1.400000            -0.000000             0.040851
H             1.250000             2.165064             0.082569
H            -1.250000             2.165064             0.001846
C             2.800000             0.000000             0.076472
C             1.400000            -2.424871             0.075844
C             2.800000            -2.424871             0.032586
C             3.500000            -1.212436             0.035156
H             3.350000             0.952628             0.057575
C             4.900000            -1.212436             0.063338
C             3.500000            -3.637307             0.001510
B             4.900000            -3.637307             0.084026
N             5.600000            -2.424871             0.001818
H             5.450000            -0.259808             0.017121
C             7.000000            -2.424871             0.010442
C             5.600000            -4.849742             0.048243
C             7.000000            -4.849742             0.036488
C             7.700000            -3.637307             0.036734
H             7.550000            -1.472243             0.048568
C             9.100000            -3.637307             0.042087
C             7.700000            -6.062178             0.032604
C             9.100000            -6.062178             0.042086
C             9.800000            -4.849742             0.069719
H             9.650000            -2.684679             0.014386
C            11.200000            -4.849742             0.090753
C             9.800000            -7.274613             0.081128
C            11.200000            -7.274613             0.027090
C            11.900000            -6.062178             0.090501
H            11.750000            -3.897114             0.058411
H            11.750000            -8.227241             0.019865
H            13.000000            -6.062178             0.066828
C            -2.800000             0.000000             0.083814
C            -3.500000            -1.212436             0.023402
C            -2.800000            -2.424871             0.065305
C            -1.400000            -2.424871             0.010346
H            -3.350000             0.952628             0.067388
C            -0.700000            -3.637307             0.032730
C             0.700000            -3.637307             0.086148
C             1.400000            -4.849742             0.055421
C             2.800000            -4.849742             0.085314
C             3.500000            -6.062178             0.089732
C             4.900000            -6.062178             0.017663
C             5.600000            -7.274613             0.042820
C             7.000000            -7.274613             0.078405
C             7.700000            -8.487049             0.030958
C             9.100000            -8.487049             0.099700
H             9.650000            -9.439677             0.011503
C            -4.900000            -1.212436             0.055427
C            -5.600000            -2.424871             0.047154
C            -4.900000            -3.637307             0.081215
C            -3.500000            -3.637307             0.060958
H            -5.450000            -0.259808             0.030965
C            -2.800000            -4.849742             0.049324
C            -1.400000            -4.849742             0.039179
C            -0.700000            -6.062178             0.016470
C             0.700000            -6.062178             0.068107
C             1.400000            -7.274613             0.087386
C             2.800000            -7.274613             0.099572
C             3.500000            -8.487049             0.035201
C             4.900000            -8.487049             0.056066
C             5.600000            -9.699485             0.005044
C             7.000000            -9.699485             0.044611
H             7.550000           -10.652112             0.098239
C            -7.000000            -2.424871             0.021418
C            -7.700000            -3.637307             0.043648
C            -7.000000            -4.849742             0.055259
C            -5.600000            -4.849742             0.022415
H            -7.550000            -1.472243             0.011070
C            -4.900000            -6.062178             0.066885
C            -3.500000            -6.062178             0.069748
C            -2.800000            -7.274613             0.048500
C            -1.400000            -7.274613             0.034365
C            -0.700000            -8.487049             0.095769
C             0.700000            -8.487049             0.076079
C             1.400000            -9.699485             0.073001
C             2.800000            -9.699485             0.063334
C             3.500000           -10.911920             0.044796
C             4.900000           -10.911920             0.048131
H             5.450000           -11.864548             0.008303
C            -9.100000            -3.637307             0.049728
C            -9.800000            -4.849742             0.021499
C            -9.100000            -6.062178             0.056162
C            -7.700000            -6.062178             0.023819
H            -9.650000            -2.684679             0.038732
H           -10.900000            -4.849742             0.079741
H            -9.650000            -7.014806             0.000259
C            -7.000000            -7.274613             0.037843
C            -5.600000            -7.274613             0.012457
H            -7.550000            -8.227241             0.094500
C            -4.900000            -8.487049             0.073981
C            -3.500000            -8.487049             0.005361
H            -5.450000            -9.439677             0.059081
C            -2.800000            -9.699485             0.079981
C            -1.400000            -9.699485             0.011926
H            -3.350000           -10.652112             0.014774
C            -0.700000           -10.911920             0.026789
C             0.700000           -10.911920             0.075983
H            -1.250000           -11.864548             0.075035
C             1.400000           -12.124356             0.069283
C             2.800000           -12.124356             0.054951
H             0.850000           -13.076984             0.055031
H             3.350000           -13.076984             0.023122
