106
isomero_27_38
C             0.700000             1.212436             0.061038
C            -0.700000             1.212436             0.093701
C            -1.400000             0.000000             0.076702
C            -0.700000            -1.212436             0.030371
C             0.700000            -1.212436             0.053972
C             1.400000            -0.000000             0.054840
H             1.250000             2.165064             0.065395
H            -1.250000             2.165064             0.029226
C             2.800000             0.000000             0.037823
C             1.400000            -2.424871             0.079337
C             2.800000            -2.424871             0.049140
C             3.500000            -1.212436             0.093710
H             3.350000             0.952628             0.074844
C             4.900000            -1.212436             0.057982
C             3.500000            -3.637307             0.019914
C             4.900000            -3.637307             0.058192
C             5.600000            -2.424871             0.053942
H             5.450000            -0.259808             0.019820
C             7.000000            -2.424871             0.078061
C             5.600000            -4.849742             0.067042
C             7.000000            -4.849742             0.006612
C             7.700000            -3.637307             0.006664
H             7.550000            -1.472243             0.056343
C             9.100000            -3.637307             0.059518
C             7.700000            -6.062178             0.071923
C             9.100000            -6.062178             0.046406
C             9.800000            -4.849742             0.093449
H             9.650000            -2.684679             0.062733
C            11.200000            -4.849742             0.055595
C             9.800000            -7.274613             0.069837
C            11.200000            -7.274613             0.025089
C            11.900000            -6.062178             0.035765
H            11.750000            -3.897114             0.045506
H            11.750000            -8.227241             0.078740
H            13.000000            -6.062178             0.090234
C            -2.800000             0.000000             0.066220
C            -3.500000            -1.212436             0.034470
C            -2.800000            -2.424871             0.097919
C            -1.400000            -2.424871             0.056038
H            -3.350000             0.952628             0.034273
C            -0.700000            -3.637307             0.061807
C             0.700000            -3.637307             0.019259
C             1.400000            -4.849742             0.068669
C             2.800000            -4.849742             0.074552
C             3.500000            -6.062178             0.099865
C             4.900000            -6.062178             0.018407
C             5.600000            -7.274613             0.002935
C             7.000000            -7.274613             0.023073
C             7.700000            -8.487049             0.011160
C             9.100000            -8.487049             0.058759
H             9.650000            -9.439677             0.025544
C            -4.900000            -1.212436             0.010056
C            -5.600000            -2.424871             0.059770
C            -4.900000            -3.637307             0.072515
B            -3.500000            -3.637307             0.061183
H            -5.450000            -0.259808             0.069585
N            -2.800000            -4.849742             0.052148
C            -1.400000            -4.849742             0.064285
C            -0.700000            -6.062178             0.064102
C             0.700000            -6.062178             0.001831
C             1.400000            -7.274613             0.072459
C             2.800000            -7.274613             0.034689
C             3.500000            -8.487049             0.073479
C             4.900000            -8.487049             0.038343
C             5.600000            -9.699485             0.041607
C             7.000000            -9.699485             0.028887
H             7.550000           -10.652112             0.037661
C            -7.000000            -2.424871             0.066609
C            -7.700000            -3.637307             0.094092
C            -7.000000            -4.849742             0.004571
C            -5.600000            -4.849742             0.011524
H            -7.550000            -1.472243             0.031051
C            -4.900000            -6.062178             0.019030
C            -3.500000            -6.062178             0.009196
C            -2.800000            -7.274613             0.005361
C            -1.400000            -7.274613             0.044555
C            -0.700000            -8.487049             0.043019
C             0.700000            -8.487049             0.000874
C             1.400000            -9.699485             0.080332
C             2.800000            -9.699485             0.025209
C             3.500000           -10.911920             0.006961
C             4.900000           -10.911920             0.092895
H             5.450000           -11.864548             0.077639
C            -9.100000            -3.637307             0.045648
C            -9.800000            -4.849742             0.066917
C            -9.100000            -6.062178             0.030570
C            -7.700000            -6.062178             0.060251
H            -9.650000            -2.684679             0.066857
H           -10.900000            -4.849742             0.095723
H            -9.650000            -7.014806             0.088134
C            -7.000000            -7.274613             0.002918
C            -5.600000            -7.274613             0.069296
H            -7.550000            -8.227241             0.025281
C            -4.900000            -8.487049             0.004295
C            -3.500000            -8.487049             0.029573
H            -5.450000            -9.439677             0.009317
C            -2.800000            -9.699485             0.069794
C            -1.400000            -9.699485             0.029047
H            -3.350000           -10.652112             0.005175
C            -0.700000           -10.911920             0.004279
C             0.700000           -10.911920             0.098341
H            -1.250000           -11.864548             0.004842
C             1.400000           -12.124356             0.044311
C             2.800000           -12.124356             0.057037
H             0.850000           -13.076984             0.061503
H             3.350000           -13.076984             0.034432
