106
isomero_33_22
C             0.700000             1.212436             0.005778
C            -0.700000             1.212436             0.026814
C            -1.400000             0.000000             0.068802
C            -0.700000            -1.212436             0.092835
C             0.700000            -1.212436             0.038788
C             1.400000            -0.000000             0.053150
H             1.250000             2.165064             0.041035
H            -1.250000             2.165064             0.057001
C             2.800000             0.000000             0.051274
C             1.400000            -2.424871             0.058077
C             2.800000            -2.424871             0.098622
C             3.500000            -1.212436             0.096286
H             3.350000             0.952628             0.029401
C             4.900000            -1.212436             0.002001
C             3.500000            -3.637307             0.030212
C             4.900000            -3.637307             0.086462
C             5.600000            -2.424871             0.064766
H             5.450000            -0.259808             0.079344
C             7.000000            -2.424871             0.060117
C             5.600000            -4.849742             0.071171
B             7.000000            -4.849742             0.088593
N             7.700000            -3.637307             0.050216
H             7.550000            -1.472243             0.044988
C             9.100000            -3.637307             0.065593
C             7.700000            -6.062178             0.072637
C             9.100000            -6.062178             0.017566
C             9.800000            -4.849742             0.099854
H             9.650000            -2.684679             0.013411
C            11.200000            -4.849742             0.067368
C             9.800000            -7.274613             0.093113
C            11.200000            -7.274613             0.042487
C            11.900000            -6.062178             0.040553
H            11.750000            -3.897114             0.022148
H            11.750000            -8.227241             0.094985
H            13.000000            -6.062178             0.058733
C            -2.800000             0.000000             0.015559
C            -3.500000            -1.212436             0.012374
C            -2.800000            -2.424871             0.078246
C            -1.400000            -2.424871             0.030472
H            -3.350000             0.952628             0.072073
C            -0.700000            -3.637307             0.011831
C             0.700000            -3.637307             0.013172
C             1.400000            -4.849742             0.099143
C             2.800000            -4.849742             0.016960
C             3.500000            -6.062178             0.070583
C             4.900000            -6.062178             0.061637
C             5.600000            -7.274613             0.062781
C             7.000000            -7.274613             0.001999
C             7.700000            -8.487049             0.089027
C             9.100000            -8.487049             0.008293
H             9.650000            -9.439677             0.088338
C            -4.900000            -1.212436             0.013321
C            -5.600000            -2.424871             0.071677
C            -4.900000            -3.637307             0.002189
C            -3.500000            -3.637307             0.010291
H            -5.450000            -0.259808             0.081537
C            -2.800000            -4.849742             0.059169
C            -1.400000            -4.849742             0.025619
C            -0.700000            -6.062178             0.001625
C             0.700000            -6.062178             0.086818
C             1.400000            -7.274613             0.023891
C             2.800000            -7.274613             0.096977
C             3.500000            -8.487049             0.052248
C             4.900000            -8.487049             0.038638
C             5.600000            -9.699485             0.080230
C             7.000000            -9.699485             0.089489
H             7.550000           -10.652112             0.005987
C            -7.000000            -2.424871             0.000230
C            -7.700000            -3.637307             0.073676
C            -7.000000            -4.849742             0.046850
C            -5.600000            -4.849742             0.021942
H            -7.550000            -1.472243             0.068531
C            -4.900000            -6.062178             0.099637
C            -3.500000            -6.062178             0.092504
C            -2.800000            -7.274613             0.065790
C            -1.400000            -7.274613             0.075864
C            -0.700000            -8.487049             0.052939
C             0.700000            -8.487049             0.034047
C             1.400000            -9.699485             0.004103
C             2.800000            -9.699485             0.061794
C             3.500000           -10.911920             0.067299
C             4.900000           -10.911920             0.016815
H             5.450000           -11.864548             0.061044
C            -9.100000            -3.637307             0.082201
C            -9.800000            -4.849742             0.029232
C            -9.100000            -6.062178             0.020860
C            -7.700000            -6.062178             0.073685
H            -9.650000            -2.684679             0.098884
H           -10.900000            -4.849742             0.069799
H            -9.650000            -7.014806             0.005621
C            -7.000000            -7.274613             0.080092
C            -5.600000            -7.274613             0.080584
H            -7.550000            -8.227241             0.040678
C            -4.900000            -8.487049             0.080776
C            -3.500000            -8.487049             0.091800
H            -5.450000            -9.439677             0.045471
C            -2.800000            -9.699485             0.065509
C            -1.400000            -9.699485             0.028274
H            -3.350000           -10.652112             0.002808
C            -0.700000           -10.911920             0.095725
C             0.700000           -10.911920             0.075524
H            -1.250000           -11.864548             0.061561
C             1.400000           -12.124356             0.089210
C             2.800000           -12.124356             0.008097
H             0.850000           -13.076984             0.089546
H             3.350000           -13.076984             0.085308
