106
isomero_7_14
C             0.700000             1.212436             0.025875
C            -0.700000             1.212436             0.064249
C            -1.400000             0.000000             0.052883
C            -0.700000            -1.212436             0.013350
C             0.700000            -1.212436             0.083354
C             1.400000            -0.000000             0.081626
H             1.250000             2.165064             0.044689
H            -1.250000             2.165064             0.084375
C             2.800000             0.000000             0.009154
C             1.400000            -2.424871             0.043187
C             2.800000            -2.424871             0.083125
C             3.500000            -1.212436             0.002474
H             3.350000             0.952628             0.000162
B             4.900000            -1.212436             0.034637
C             3.500000            -3.637307             0.020343
C             4.900000            -3.637307             0.083810
N             5.600000            -2.424871             0.024994
H             5.450000            -0.259808             0.071216
C             7.000000            -2.424871             0.016621
C             5.600000            -4.849742             0.025480
C             7.000000            -4.849742             0.004305
C             7.700000            -3.637307             0.093282
H             7.550000            -1.472243             0.010314
C             9.100000            -3.637307             0.092314
C             7.700000            -6.062178             0.080152
C             9.100000            -6.062178             0.072773
C             9.800000            -4.849742             0.034933
H             9.650000            -2.684679             0.085485
C            11.200000            -4.849742             0.055820
C             9.800000            -7.274613             0.084239
C            11.200000            -7.274613             0.083996
C            11.900000            -6.062178             0.036788
H            11.750000            -3.897114             0.068697
H            11.750000            -8.227241             0.089426
H            13.000000            -6.062178             0.086077
C            -2.800000             0.000000             0.072572
C            -3.500000            -1.212436             0.090316
C            -2.800000            -2.424871             0.090196
C            -1.400000            -2.424871             0.066042
H            -3.350000             0.952628             0.087006
C            -0.700000            -3.637307             0.093548
C             0.700000            -3.637307             0.051152
C             1.400000            -4.849742             0.017933
C             2.800000            -4.849742             0.069529
C             3.500000            -6.062178             0.077244
C             4.900000            -6.062178             0.010818
C             5.600000            -7.274613             0.002169
C             7.000000            -7.274613             0.041350
C             7.700000            -8.487049             0.061587
C             9.100000            -8.487049             0.070178
H             9.650000            -9.439677             0.096611
C            -4.900000            -1.212436             0.070387
C            -5.600000            -2.424871             0.040347
C            -4.900000            -3.637307             0.095801
C            -3.500000            -3.637307             0.027728
H            -5.450000            -0.259808             0.073230
C            -2.800000            -4.849742             0.090767
C            -1.400000            -4.849742             0.082088
C            -0.700000            -6.062178             0.050542
C             0.700000            -6.062178             0.029161
C             1.400000            -7.274613             0.036165
C             2.800000            -7.274613             0.084000
C             3.500000            -8.487049             0.023635
C             4.900000            -8.487049             0.058613
C             5.600000            -9.699485             0.075617
C             7.000000            -9.699485             0.062169
H             7.550000           -10.652112             0.097215
C            -7.000000            -2.424871             0.021862
C            -7.700000            -3.637307             0.098693
C            -7.000000            -4.849742             0.038115
C            -5.600000            -4.849742             0.095596
H            -7.550000            -1.472243             0.052380
C            -4.900000            -6.062178             0.077352
C            -3.500000            -6.062178             0.024621
C            -2.800000            -7.274613             0.048029
C            -1.400000            -7.274613             0.091707
C            -0.700000            -8.487049             0.042599
C             0.700000            -8.487049             0.093653
C             1.400000            -9.699485             0.032057
C             2.800000            -9.699485             0.000529
C             3.500000           -10.911920             0.091925
C             4.900000           -10.911920             0.034001
H             5.450000           -11.864548             0.099406
C            -9.100000            -3.637307             0.022541
C            -9.800000            -4.849742             0.029840
C            -9.100000            -6.062178             0.082847
C            -7.700000            -6.062178             0.096926
H            -9.650000            -2.684679             0.047993
H           -10.900000            -4.849742             0.088451
H            -9.650000            -7.014806             0.018307
C            -7.000000            -7.274613             0.086831
C            -5.600000            -7.274613             0.025096
H            -7.550000            -8.227241             0.046269
C            -4.900000            -8.487049             0.081542
C            -3.500000            -8.487049             0.069814
H            -5.450000            -9.439677             0.043555
C            -2.800000            -9.699485             0.005173
C            -1.400000            -9.699485             0.033406
H            -3.350000           -10.652112             0.012832
C            -0.700000           -10.911920             0.004572
C             0.700000           -10.911920             0.069743
H            -1.250000           -11.864548             0.077014
C             1.400000           -12.124356             0.060948
C             2.800000           -12.124356             0.039268
H             0.850000           -13.076984             0.037318
H             3.350000           -13.076984             0.007872
