106
isomero_39_40
C             0.700000             1.212436             0.045235
C            -0.700000             1.212436             0.039087
C            -1.400000             0.000000             0.022552
C            -0.700000            -1.212436             0.092106
C             0.700000            -1.212436             0.064461
C             1.400000            -0.000000             0.036723
H             1.250000             2.165064             0.088496
H            -1.250000             2.165064             0.063013
C             2.800000             0.000000             0.080546
C             1.400000            -2.424871             0.074525
C             2.800000            -2.424871             0.046351
C             3.500000            -1.212436             0.032864
H             3.350000             0.952628             0.052251
C             4.900000            -1.212436             0.044243
C             3.500000            -3.637307             0.087334
C             4.900000            -3.637307             0.000729
C             5.600000            -2.424871             0.093518
H             5.450000            -0.259808             0.018937
C             7.000000            -2.424871             0.090264
C             5.600000            -4.849742             0.046431
C             7.000000            -4.849742             0.089148
C             7.700000            -3.637307             0.011548
H             7.550000            -1.472243             0.057370
C             9.100000            -3.637307             0.049078
C             7.700000            -6.062178             0.056309
C             9.100000            -6.062178             0.099484
C             9.800000            -4.849742             0.090217
H             9.650000            -2.684679             0.053835
C            11.200000            -4.849742             0.009909
C             9.800000            -7.274613             0.042607
C            11.200000            -7.274613             0.017178
C            11.900000            -6.062178             0.086655
H            11.750000            -3.897114             0.093255
H            11.750000            -8.227241             0.076469
H            13.000000            -6.062178             0.043831
C            -2.800000             0.000000             0.083865
C            -3.500000            -1.212436             0.050203
C            -2.800000            -2.424871             0.070608
C            -1.400000            -2.424871             0.003368
H            -3.350000             0.952628             0.040602
C            -0.700000            -3.637307             0.053436
C             0.700000            -3.637307             0.027635
C             1.400000            -4.849742             0.020966
C             2.800000            -4.849742             0.048260
C             3.500000            -6.062178             0.025189
C             4.900000            -6.062178             0.065605
C             5.600000            -7.274613             0.073165
C             7.000000            -7.274613             0.012645
C             7.700000            -8.487049             0.051888
C             9.100000            -8.487049             0.082854
H             9.650000            -9.439677             0.042330
C            -4.900000            -1.212436             0.012041
C            -5.600000            -2.424871             0.074473
C            -4.900000            -3.637307             0.056893
C            -3.500000            -3.637307             0.092344
H            -5.450000            -0.259808             0.074378
C            -2.800000            -4.849742             0.072986
C            -1.400000            -4.849742             0.004465
C            -0.700000            -6.062178             0.080248
C             0.700000            -6.062178             0.058345
C             1.400000            -7.274613             0.066985
C             2.800000            -7.274613             0.037013
C             3.500000            -8.487049             0.039137
C             4.900000            -8.487049             0.014925
C             5.600000            -9.699485             0.097750
C             7.000000            -9.699485             0.007934
H             7.550000           -10.652112             0.027338
C            -7.000000            -2.424871             0.017575
C            -7.700000            -3.637307             0.049891
N            -7.000000            -4.849742             0.013719
B            -5.600000            -4.849742             0.073570
H            -7.550000            -1.472243             0.027344
C            -4.900000            -6.062178             0.021757
C            -3.500000            -6.062178             0.042752
C            -2.800000            -7.274613             0.025186
C            -1.400000            -7.274613             0.038918
C            -0.700000            -8.487049             0.064517
C             0.700000            -8.487049             0.052451
C             1.400000            -9.699485             0.080467
C             2.800000            -9.699485             0.078536
C             3.500000           -10.911920             0.091979
C             4.900000           -10.911920             0.028938
H             5.450000           -11.864548             0.055868
C            -9.100000            -3.637307             0.031747
C            -9.800000            -4.849742             0.056385
C            -9.100000            -6.062178             0.082162
C            -7.700000            -6.062178             0.092459
H            -9.650000            -2.684679             0.015716
H           -10.900000            -4.849742             0.014012
H            -9.650000            -7.014806             0.057617
C            -7.000000            -7.274613             0.073232
C            -5.600000            -7.274613             0.054409
H            -7.550000            -8.227241             0.068339
C            -4.900000            -8.487049             0.010343
C            -3.500000            -8.487049             0.052335
H            -5.450000            -9.439677             0.063968
C            -2.800000            -9.699485             0.016744
C            -1.400000            -9.699485             0.065736
H            -3.350000           -10.652112             0.019007
C            -0.700000           -10.911920             0.007107
C             0.700000           -10.911920             0.079790
H            -1.250000           -11.864548             0.030292
C             1.400000           -12.124356             0.018175
C             2.800000           -12.124356             0.090499
H             0.850000           -13.076984             0.014925
H             3.350000           -13.076984             0.073467
