106
isomero_13_14
C             0.700000             1.212436             0.027446
C            -0.700000             1.212436             0.049431
C            -1.400000             0.000000             0.027384
C            -0.700000            -1.212436             0.085268
C             0.700000            -1.212436             0.028608
C             1.400000            -0.000000             0.020154
H             1.250000             2.165064             0.054216
H            -1.250000             2.165064             0.020452
C             2.800000             0.000000             0.001117
C             1.400000            -2.424871             0.037744
C             2.800000            -2.424871             0.084031
C             3.500000            -1.212436             0.069368
H             3.350000             0.952628             0.000300
C             4.900000            -1.212436             0.027250
C             3.500000            -3.637307             0.036160
C             4.900000            -3.637307             0.042374
N             5.600000            -2.424871             0.070958
H             5.450000            -0.259808             0.038041
B             7.000000            -2.424871             0.089792
C             5.600000            -4.849742             0.063262
C             7.000000            -4.849742             0.093825
C             7.700000            -3.637307             0.065825
H             7.550000            -1.472243             0.051068
C             9.100000            -3.637307             0.091265
C             7.700000            -6.062178             0.033500
C             9.100000            -6.062178             0.057999
C             9.800000            -4.849742             0.035406
H             9.650000            -2.684679             0.070746
C            11.200000            -4.849742             0.071964
C             9.800000            -7.274613             0.074872
C            11.200000            -7.274613             0.060449
C            11.900000            -6.062178             0.014681
H            11.750000            -3.897114             0.034881
H            11.750000            -8.227241             0.002464
H            13.000000            -6.062178             0.032384
C            -2.800000             0.000000             0.053596
C            -3.500000            -1.212436             0.005781
C            -2.800000            -2.424871             0.044767
C            -1.400000            -2.424871             0.015223
H            -3.350000             0.952628             0.071860
C            -0.700000            -3.637307             0.070329
C             0.700000            -3.637307             0.064733
C             1.400000            -4.849742             0.003658
C             2.800000            -4.849742             0.087083
C             3.500000            -6.062178             0.045754
C             4.900000            -6.062178             0.078099
C             5.600000            -7.274613             0.076889
C             7.000000            -7.274613             0.057074
C             7.700000            -8.487049             0.056196
C             9.100000            -8.487049             0.000841
H             9.650000            -9.439677             0.099097
C            -4.900000            -1.212436             0.035171
C            -5.600000            -2.424871             0.076337
C            -4.900000            -3.637307             0.022803
C            -3.500000            -3.637307             0.042160
H            -5.450000            -0.259808             0.052707
C            -2.800000            -4.849742             0.021786
C            -1.400000            -4.849742             0.035286
C            -0.700000            -6.062178             0.055276
C             0.700000            -6.062178             0.063854
C             1.400000            -7.274613             0.043957
C             2.800000            -7.274613             0.018964
C             3.500000            -8.487049             0.037681
C             4.900000            -8.487049             0.040215
C             5.600000            -9.699485             0.026608
C             7.000000            -9.699485             0.073290
H             7.550000           -10.652112             0.030861
C            -7.000000            -2.424871             0.048006
C            -7.700000            -3.637307             0.010615
C            -7.000000            -4.849742             0.017527
C            -5.600000            -4.849742             0.069097
H            -7.550000            -1.472243             0.002534
C            -4.900000            -6.062178             0.007535
C            -3.500000            -6.062178             0.058107
C            -2.800000            -7.274613             0.039614
C            -1.400000            -7.274613             0.040878
C            -0.700000            -8.487049             0.071256
C             0.700000            -8.487049             0.003375
C             1.400000            -9.699485             0.017782
C             2.800000            -9.699485             0.090734
C             3.500000           -10.911920             0.058968
C             4.900000           -10.911920             0.043277
H             5.450000           -11.864548             0.011762
C            -9.100000            -3.637307             0.071284
C            -9.800000            -4.849742             0.056389
C            -9.100000            -6.062178             0.001735
C            -7.700000            -6.062178             0.071073
H            -9.650000            -2.684679             0.081964
H           -10.900000            -4.849742             0.039557
H            -9.650000            -7.014806             0.027827
C            -7.000000            -7.274613             0.032792
C            -5.600000            -7.274613             0.077489
H            -7.550000            -8.227241             0.002810
C            -4.900000            -8.487049             0.082286
C            -3.500000            -8.487049             0.052432
H            -5.450000            -9.439677             0.085864
C            -2.800000            -9.699485             0.069771
C            -1.400000            -9.699485             0.038983
H            -3.350000           -10.652112             0.006301
C            -0.700000           -10.911920             0.074220
C             0.700000           -10.911920             0.090996
H            -1.250000           -11.864548             0.094858
C             1.400000           -12.124356             0.013830
C             2.800000           -12.124356             0.093145
H             0.850000           -13.076984             0.002430
H             3.350000           -13.076984             0.001767
