106
isomero_42_53
C             0.700000             1.212436             0.054084
C            -0.700000             1.212436             0.022219
C            -1.400000             0.000000             0.039243
C            -0.700000            -1.212436             0.049524
C             0.700000            -1.212436             0.000716
C             1.400000            -0.000000             0.073696
H             1.250000             2.165064             0.061077
H            -1.250000             2.165064             0.033656
C             2.800000             0.000000             0.039334
C             1.400000            -2.424871             0.057007
C             2.800000            -2.424871             0.067279
C             3.500000            -1.212436             0.060770
H             3.350000             0.952628             0.047752
C             4.900000            -1.212436             0.083385
C             3.500000            -3.637307             0.041146
C             4.900000            -3.637307             0.038897
C             5.600000            -2.424871             0.093900
H             5.450000            -0.259808             0.089359
C             7.000000            -2.424871             0.055022
C             5.600000            -4.849742             0.058430
C             7.000000            -4.849742             0.091959
C             7.700000            -3.637307             0.037749
H             7.550000            -1.472243             0.059222
C             9.100000            -3.637307             0.055691
C             7.700000            -6.062178             0.094569
C             9.100000            -6.062178             0.091762
C             9.800000            -4.849742             0.064753
H             9.650000            -2.684679             0.030117
C            11.200000            -4.849742             0.059035
C             9.800000            -7.274613             0.029678
N            11.200000            -7.274613             0.079341
B            11.900000            -6.062178             0.007233
H            11.750000            -3.897114             0.014107
H            11.750000            -8.227241             0.062477
H            13.000000            -6.062178             0.052301
C            -2.800000             0.000000             0.031598
C            -3.500000            -1.212436             0.075310
C            -2.800000            -2.424871             0.061387
C            -1.400000            -2.424871             0.064149
H            -3.350000             0.952628             0.070755
C            -0.700000            -3.637307             0.085725
C             0.700000            -3.637307             0.034001
C             1.400000            -4.849742             0.091128
C             2.800000            -4.849742             0.062835
C             3.500000            -6.062178             0.065853
C             4.900000            -6.062178             0.087135
C             5.600000            -7.274613             0.088536
C             7.000000            -7.274613             0.036157
C             7.700000            -8.487049             0.098400
C             9.100000            -8.487049             0.007163
H             9.650000            -9.439677             0.031199
C            -4.900000            -1.212436             0.054981
C            -5.600000            -2.424871             0.026839
C            -4.900000            -3.637307             0.023378
C            -3.500000            -3.637307             0.021437
H            -5.450000            -0.259808             0.095176
C            -2.800000            -4.849742             0.078765
C            -1.400000            -4.849742             0.015946
C            -0.700000            -6.062178             0.049362
C             0.700000            -6.062178             0.014189
C             1.400000            -7.274613             0.052059
C             2.800000            -7.274613             0.038168
C             3.500000            -8.487049             0.030981
C             4.900000            -8.487049             0.048545
C             5.600000            -9.699485             0.098506
C             7.000000            -9.699485             0.006900
H             7.550000           -10.652112             0.018581
C            -7.000000            -2.424871             0.087220
C            -7.700000            -3.637307             0.098856
C            -7.000000            -4.849742             0.048538
C            -5.600000            -4.849742             0.074287
H            -7.550000            -1.472243             0.075890
C            -4.900000            -6.062178             0.064400
C            -3.500000            -6.062178             0.053917
C            -2.800000            -7.274613             0.038266
C            -1.400000            -7.274613             0.061915
C            -0.700000            -8.487049             0.082149
C             0.700000            -8.487049             0.080687
C             1.400000            -9.699485             0.066078
C             2.800000            -9.699485             0.019578
C             3.500000           -10.911920             0.046917
C             4.900000           -10.911920             0.017347
H             5.450000           -11.864548             0.049381
C            -9.100000            -3.637307             0.019664
C            -9.800000            -4.849742             0.055008
C            -9.100000            -6.062178             0.032060
C            -7.700000            -6.062178             0.033708
H            -9.650000            -2.684679             0.047619
H           -10.900000            -4.849742             0.003764
H            -9.650000            -7.014806             0.043332
C            -7.000000            -7.274613             0.001280
C            -5.600000            -7.274613             0.032392
H            -7.550000            -8.227241             0.057357
C            -4.900000            -8.487049             0.050506
C            -3.500000            -8.487049             0.002131
H            -5.450000            -9.439677             0.096703
C            -2.800000            -9.699485             0.042927
C            -1.400000            -9.699485             0.013774
H            -3.350000           -10.652112             0.008767
C            -0.700000           -10.911920             0.067764
C             0.700000           -10.911920             0.067218
H            -1.250000           -11.864548             0.019453
C             1.400000           -12.124356             0.067855
C             2.800000           -12.124356             0.041886
H             0.850000           -13.076984             0.094165
H             3.350000           -13.076984             0.080362
