106
isomero_28_39
C             0.700000             1.212436             0.048752
C            -0.700000             1.212436             0.023406
C            -1.400000             0.000000             0.050735
C            -0.700000            -1.212436             0.083430
C             0.700000            -1.212436             0.006418
C             1.400000            -0.000000             0.092079
H             1.250000             2.165064             0.076275
H            -1.250000             2.165064             0.021160
C             2.800000             0.000000             0.075659
C             1.400000            -2.424871             0.099076
C             2.800000            -2.424871             0.065170
C             3.500000            -1.212436             0.038740
H             3.350000             0.952628             0.039506
C             4.900000            -1.212436             0.090644
C             3.500000            -3.637307             0.058933
C             4.900000            -3.637307             0.092781
C             5.600000            -2.424871             0.023235
H             5.450000            -0.259808             0.043450
C             7.000000            -2.424871             0.049495
C             5.600000            -4.849742             0.036757
C             7.000000            -4.849742             0.065082
C             7.700000            -3.637307             0.021677
H             7.550000            -1.472243             0.083446
C             9.100000            -3.637307             0.013721
C             7.700000            -6.062178             0.007239
C             9.100000            -6.062178             0.011344
C             9.800000            -4.849742             0.055763
H             9.650000            -2.684679             0.029965
C            11.200000            -4.849742             0.001058
C             9.800000            -7.274613             0.015366
C            11.200000            -7.274613             0.057186
C            11.900000            -6.062178             0.010991
H            11.750000            -3.897114             0.071477
H            11.750000            -8.227241             0.082594
H            13.000000            -6.062178             0.065722
C            -2.800000             0.000000             0.026014
C            -3.500000            -1.212436             0.099683
C            -2.800000            -2.424871             0.093510
C            -1.400000            -2.424871             0.078210
H            -3.350000             0.952628             0.059217
C            -0.700000            -3.637307             0.029372
C             0.700000            -3.637307             0.060998
C             1.400000            -4.849742             0.009113
C             2.800000            -4.849742             0.026165
C             3.500000            -6.062178             0.045082
C             4.900000            -6.062178             0.025644
C             5.600000            -7.274613             0.022641
C             7.000000            -7.274613             0.001329
C             7.700000            -8.487049             0.020384
C             9.100000            -8.487049             0.054893
H             9.650000            -9.439677             0.090337
C            -4.900000            -1.212436             0.068381
C            -5.600000            -2.424871             0.035558
B            -4.900000            -3.637307             0.026375
C            -3.500000            -3.637307             0.085525
H            -5.450000            -0.259808             0.013126
C            -2.800000            -4.849742             0.032118
C            -1.400000            -4.849742             0.022407
C            -0.700000            -6.062178             0.022089
C             0.700000            -6.062178             0.085181
C             1.400000            -7.274613             0.010946
C             2.800000            -7.274613             0.072265
C             3.500000            -8.487049             0.098524
C             4.900000            -8.487049             0.042271
C             5.600000            -9.699485             0.064765
C             7.000000            -9.699485             0.095199
H             7.550000           -10.652112             0.019906
C            -7.000000            -2.424871             0.036192
C            -7.700000            -3.637307             0.036517
C            -7.000000            -4.849742             0.018887
N            -5.600000            -4.849742             0.024399
H            -7.550000            -1.472243             0.050600
C            -4.900000            -6.062178             0.073081
C            -3.500000            -6.062178             0.043395
C            -2.800000            -7.274613             0.039656
C            -1.400000            -7.274613             0.030370
C            -0.700000            -8.487049             0.043930
C             0.700000            -8.487049             0.013498
C             1.400000            -9.699485             0.018425
C             2.800000            -9.699485             0.055516
C             3.500000           -10.911920             0.026396
C             4.900000           -10.911920             0.048390
H             5.450000           -11.864548             0.008947
C            -9.100000            -3.637307             0.093483
C            -9.800000            -4.849742             0.020677
C            -9.100000            -6.062178             0.032234
C            -7.700000            -6.062178             0.037925
H            -9.650000            -2.684679             0.059063
H           -10.900000            -4.849742             0.084040
H            -9.650000            -7.014806             0.047846
C            -7.000000            -7.274613             0.054287
C            -5.600000            -7.274613             0.096206
H            -7.550000            -8.227241             0.025816
C            -4.900000            -8.487049             0.026691
C            -3.500000            -8.487049             0.085185
H            -5.450000            -9.439677             0.002551
C            -2.800000            -9.699485             0.053143
C            -1.400000            -9.699485             0.019313
H            -3.350000           -10.652112             0.029248
C            -0.700000           -10.911920             0.099060
C             0.700000           -10.911920             0.067756
H            -1.250000           -11.864548             0.068593
C             1.400000           -12.124356             0.087065
C             2.800000           -12.124356             0.025287
H             0.850000           -13.076984             0.002662
H             3.350000           -13.076984             0.089545
