106
isomero_4_9
C             0.700000             1.212436             0.001729
C            -0.700000             1.212436             0.082087
C            -1.400000             0.000000             0.005197
C            -0.700000            -1.212436             0.077565
N             0.700000            -1.212436             0.031640
B             1.400000            -0.000000             0.067765
H             1.250000             2.165064             0.008090
H            -1.250000             2.165064             0.051332
C             2.800000             0.000000             0.061317
C             1.400000            -2.424871             0.048283
C             2.800000            -2.424871             0.074199
C             3.500000            -1.212436             0.070314
H             3.350000             0.952628             0.018539
C             4.900000            -1.212436             0.049480
C             3.500000            -3.637307             0.006753
C             4.900000            -3.637307             0.027126
C             5.600000            -2.424871             0.099606
H             5.450000            -0.259808             0.096677
C             7.000000            -2.424871             0.001988
C             5.600000            -4.849742             0.055433
C             7.000000            -4.849742             0.093518
C             7.700000            -3.637307             0.065112
H             7.550000            -1.472243             0.076633
C             9.100000            -3.637307             0.008490
C             7.700000            -6.062178             0.080066
C             9.100000            -6.062178             0.038178
C             9.800000            -4.849742             0.005290
H             9.650000            -2.684679             0.079302
C            11.200000            -4.849742             0.014658
C             9.800000            -7.274613             0.070490
C            11.200000            -7.274613             0.094668
C            11.900000            -6.062178             0.059504
H            11.750000            -3.897114             0.053737
H            11.750000            -8.227241             0.082981
H            13.000000            -6.062178             0.088435
C            -2.800000             0.000000             0.036308
C            -3.500000            -1.212436             0.008660
C            -2.800000            -2.424871             0.004948
C            -1.400000            -2.424871             0.046252
H            -3.350000             0.952628             0.003118
C            -0.700000            -3.637307             0.089456
C             0.700000            -3.637307             0.047927
C             1.400000            -4.849742             0.043037
C             2.800000            -4.849742             0.075463
C             3.500000            -6.062178             0.051858
C             4.900000            -6.062178             0.087721
C             5.600000            -7.274613             0.001434
C             7.000000            -7.274613             0.083791
C             7.700000            -8.487049             0.000278
C             9.100000            -8.487049             0.022860
H             9.650000            -9.439677             0.005772
C            -4.900000            -1.212436             0.027929
C            -5.600000            -2.424871             0.080882
C            -4.900000            -3.637307             0.077644
C            -3.500000            -3.637307             0.043780
H            -5.450000            -0.259808             0.039991
C            -2.800000            -4.849742             0.024439
C            -1.400000            -4.849742             0.016494
C            -0.700000            -6.062178             0.051757
C             0.700000            -6.062178             0.016661
C             1.400000            -7.274613             0.013963
C             2.800000            -7.274613             0.045052
C             3.500000            -8.487049             0.041456
C             4.900000            -8.487049             0.029918
C             5.600000            -9.699485             0.050506
C             7.000000            -9.699485             0.000743
H             7.550000           -10.652112             0.029219
C            -7.000000            -2.424871             0.003814
C            -7.700000            -3.637307             0.062259
C            -7.000000            -4.849742             0.007189
C            -5.600000            -4.849742             0.015419
H            -7.550000            -1.472243             0.013025
C            -4.900000            -6.062178             0.040589
C            -3.500000            -6.062178             0.055831
C            -2.800000            -7.274613             0.075895
C            -1.400000            -7.274613             0.003934
C            -0.700000            -8.487049             0.069689
C             0.700000            -8.487049             0.073553
C             1.400000            -9.699485             0.029918
C             2.800000            -9.699485             0.092231
C             3.500000           -10.911920             0.058994
C             4.900000           -10.911920             0.011288
H             5.450000           -11.864548             0.038675
C            -9.100000            -3.637307             0.048089
C            -9.800000            -4.849742             0.095402
C            -9.100000            -6.062178             0.016581
C            -7.700000            -6.062178             0.047065
H            -9.650000            -2.684679             0.023651
H           -10.900000            -4.849742             0.017293
H            -9.650000            -7.014806             0.060420
C            -7.000000            -7.274613             0.062226
C            -5.600000            -7.274613             0.071288
H            -7.550000            -8.227241             0.095771
C            -4.900000            -8.487049             0.061080
C            -3.500000            -8.487049             0.022404
H            -5.450000            -9.439677             0.027099
C            -2.800000            -9.699485             0.044433
C            -1.400000            -9.699485             0.004724
H            -3.350000           -10.652112             0.015432
C            -0.700000           -10.911920             0.007032
C             0.700000           -10.911920             0.092031
H            -1.250000           -11.864548             0.014281
C             1.400000           -12.124356             0.036151
C             2.800000           -12.124356             0.089474
H             0.850000           -13.076984             0.066026
H             3.350000           -13.076984             0.062624
