106
isomero_22_13
C             0.700000             1.212436             0.086896
C            -0.700000             1.212436             0.082588
C            -1.400000             0.000000             0.003044
C            -0.700000            -1.212436             0.024542
C             0.700000            -1.212436             0.078803
C             1.400000            -0.000000             0.039808
H             1.250000             2.165064             0.009957
H            -1.250000             2.165064             0.035125
C             2.800000             0.000000             0.077465
C             1.400000            -2.424871             0.065439
C             2.800000            -2.424871             0.001813
C             3.500000            -1.212436             0.015191
H             3.350000             0.952628             0.072481
C             4.900000            -1.212436             0.033429
C             3.500000            -3.637307             0.040078
C             4.900000            -3.637307             0.073168
C             5.600000            -2.424871             0.040509
H             5.450000            -0.259808             0.080048
N             7.000000            -2.424871             0.025604
C             5.600000            -4.849742             0.026908
C             7.000000            -4.849742             0.013987
B             7.700000            -3.637307             0.057302
H             7.550000            -1.472243             0.059145
C             9.100000            -3.637307             0.028489
C             7.700000            -6.062178             0.037666
C             9.100000            -6.062178             0.039799
C             9.800000            -4.849742             0.074458
H             9.650000            -2.684679             0.043108
C            11.200000            -4.849742             0.089529
C             9.800000            -7.274613             0.050028
C            11.200000            -7.274613             0.090804
C            11.900000            -6.062178             0.000498
H            11.750000            -3.897114             0.024371
H            11.750000            -8.227241             0.075854
H            13.000000            -6.062178             0.041039
C            -2.800000             0.000000             0.008505
C            -3.500000            -1.212436             0.028919
C            -2.800000            -2.424871             0.031982
C            -1.400000            -2.424871             0.001897
H            -3.350000             0.952628             0.042791
C            -0.700000            -3.637307             0.039878
C             0.700000            -3.637307             0.079199
C             1.400000            -4.849742             0.034923
C             2.800000            -4.849742             0.039466
C             3.500000            -6.062178             0.008165
C             4.900000            -6.062178             0.079886
C             5.600000            -7.274613             0.047810
C             7.000000            -7.274613             0.004347
C             7.700000            -8.487049             0.070315
C             9.100000            -8.487049             0.092783
H             9.650000            -9.439677             0.046637
C            -4.900000            -1.212436             0.066261
C            -5.600000            -2.424871             0.088576
C            -4.900000            -3.637307             0.017528
C            -3.500000            -3.637307             0.079984
H            -5.450000            -0.259808             0.055479
C            -2.800000            -4.849742             0.078686
C            -1.400000            -4.849742             0.097195
C            -0.700000            -6.062178             0.012320
C             0.700000            -6.062178             0.008891
C             1.400000            -7.274613             0.057919
C             2.800000            -7.274613             0.088083
C             3.500000            -8.487049             0.043551
C             4.900000            -8.487049             0.058998
C             5.600000            -9.699485             0.091635
C             7.000000            -9.699485             0.016612
H             7.550000           -10.652112             0.092513
C            -7.000000            -2.424871             0.056603
C            -7.700000            -3.637307             0.059308
C            -7.000000            -4.849742             0.071945
C            -5.600000            -4.849742             0.090652
H            -7.550000            -1.472243             0.088909
C            -4.900000            -6.062178             0.013574
C            -3.500000            -6.062178             0.024583
C            -2.800000            -7.274613             0.036578
C            -1.400000            -7.274613             0.034371
C            -0.700000            -8.487049             0.085515
C             0.700000            -8.487049             0.070423
C             1.400000            -9.699485             0.066568
C             2.800000            -9.699485             0.052417
C             3.500000           -10.911920             0.084643
C             4.900000           -10.911920             0.014217
H             5.450000           -11.864548             0.043245
C            -9.100000            -3.637307             0.013391
C            -9.800000            -4.849742             0.010737
C            -9.100000            -6.062178             0.040344
C            -7.700000            -6.062178             0.037044
H            -9.650000            -2.684679             0.035197
H           -10.900000            -4.849742             0.073531
H            -9.650000            -7.014806             0.030690
C            -7.000000            -7.274613             0.031466
C            -5.600000            -7.274613             0.004575
H            -7.550000            -8.227241             0.019079
C            -4.900000            -8.487049             0.081467
C            -3.500000            -8.487049             0.097972
H            -5.450000            -9.439677             0.038549
C            -2.800000            -9.699485             0.073291
C            -1.400000            -9.699485             0.088190
H            -3.350000           -10.652112             0.001348
C            -0.700000           -10.911920             0.072783
C             0.700000           -10.911920             0.068452
H            -1.250000           -11.864548             0.056444
C             1.400000           -12.124356             0.061727
C             2.800000           -12.124356             0.088214
H             0.850000           -13.076984             0.079280
H             3.350000           -13.076984             0.075277
