106
isomero_12_11
C             0.700000             1.212436             0.002849
C            -0.700000             1.212436             0.080125
C            -1.400000             0.000000             0.049257
C            -0.700000            -1.212436             0.096260
C             0.700000            -1.212436             0.033510
C             1.400000            -0.000000             0.089871
H             1.250000             2.165064             0.003251
H            -1.250000             2.165064             0.067135
C             2.800000             0.000000             0.045726
C             1.400000            -2.424871             0.061249
C             2.800000            -2.424871             0.064555
C             3.500000            -1.212436             0.065657
H             3.350000             0.952628             0.011030
C             4.900000            -1.212436             0.094067
C             3.500000            -3.637307             0.099642
C             4.900000            -3.637307             0.064867
C             5.600000            -2.424871             0.043236
H             5.450000            -0.259808             0.003225
C             7.000000            -2.424871             0.099590
C             5.600000            -4.849742             0.018165
C             7.000000            -4.849742             0.019592
C             7.700000            -3.637307             0.097369
H             7.550000            -1.472243             0.062176
C             9.100000            -3.637307             0.011101
C             7.700000            -6.062178             0.053837
C             9.100000            -6.062178             0.039381
C             9.800000            -4.849742             0.070761
H             9.650000            -2.684679             0.033200
C            11.200000            -4.849742             0.014683
C             9.800000            -7.274613             0.085192
C            11.200000            -7.274613             0.058920
C            11.900000            -6.062178             0.080793
H            11.750000            -3.897114             0.037114
H            11.750000            -8.227241             0.064480
H            13.000000            -6.062178             0.049926
C            -2.800000             0.000000             0.099198
N            -3.500000            -1.212436             0.071807
C            -2.800000            -2.424871             0.064687
C            -1.400000            -2.424871             0.083094
H            -3.350000             0.952628             0.037668
C            -0.700000            -3.637307             0.005138
C             0.700000            -3.637307             0.002103
C             1.400000            -4.849742             0.067386
C             2.800000            -4.849742             0.031847
C             3.500000            -6.062178             0.070177
C             4.900000            -6.062178             0.000294
C             5.600000            -7.274613             0.095699
C             7.000000            -7.274613             0.006839
C             7.700000            -8.487049             0.071853
C             9.100000            -8.487049             0.045339
H             9.650000            -9.439677             0.023264
B            -4.900000            -1.212436             0.012280
C            -5.600000            -2.424871             0.034796
C            -4.900000            -3.637307             0.069507
C            -3.500000            -3.637307             0.014356
H            -5.450000            -0.259808             0.079021
C            -2.800000            -4.849742             0.075614
C            -1.400000            -4.849742             0.050558
C            -0.700000            -6.062178             0.090680
C             0.700000            -6.062178             0.034362
C             1.400000            -7.274613             0.076384
C             2.800000            -7.274613             0.061434
C             3.500000            -8.487049             0.067705
C             4.900000            -8.487049             0.056003
C             5.600000            -9.699485             0.025728
C             7.000000            -9.699485             0.095949
H             7.550000           -10.652112             0.095327
C            -7.000000            -2.424871             0.023101
C            -7.700000            -3.637307             0.051160
C            -7.000000            -4.849742             0.049418
C            -5.600000            -4.849742             0.052482
H            -7.550000            -1.472243             0.085853
C            -4.900000            -6.062178             0.068365
C            -3.500000            -6.062178             0.042421
C            -2.800000            -7.274613             0.042527
C            -1.400000            -7.274613             0.092083
C            -0.700000            -8.487049             0.004953
C             0.700000            -8.487049             0.087090
C             1.400000            -9.699485             0.032625
C             2.800000            -9.699485             0.010356
C             3.500000           -10.911920             0.076161
C             4.900000           -10.911920             0.020884
H             5.450000           -11.864548             0.075219
C            -9.100000            -3.637307             0.009959
C            -9.800000            -4.849742             0.006929
C            -9.100000            -6.062178             0.046595
C            -7.700000            -6.062178             0.091363
H            -9.650000            -2.684679             0.050766
H           -10.900000            -4.849742             0.095896
H            -9.650000            -7.014806             0.033389
C            -7.000000            -7.274613             0.043467
C            -5.600000            -7.274613             0.025022
H            -7.550000            -8.227241             0.097981
C            -4.900000            -8.487049             0.057025
C            -3.500000            -8.487049             0.096983
H            -5.450000            -9.439677             0.041832
C            -2.800000            -9.699485             0.018420
C            -1.400000            -9.699485             0.026632
H            -3.350000           -10.652112             0.094809
C            -0.700000           -10.911920             0.006716
C             0.700000           -10.911920             0.098130
H            -1.250000           -11.864548             0.096127
C             1.400000           -12.124356             0.001371
C             2.800000           -12.124356             0.095166
H             0.850000           -13.076984             0.053296
H             3.350000           -13.076984             0.079012
