106
isomero_14_13
C             0.700000             1.212436             0.093106
C            -0.700000             1.212436             0.051707
C            -1.400000             0.000000             0.012312
C            -0.700000            -1.212436             0.036650
C             0.700000            -1.212436             0.027001
C             1.400000            -0.000000             0.081147
H             1.250000             2.165064             0.057169
H            -1.250000             2.165064             0.042160
C             2.800000             0.000000             0.078029
C             1.400000            -2.424871             0.079996
C             2.800000            -2.424871             0.073400
C             3.500000            -1.212436             0.031778
H             3.350000             0.952628             0.039590
C             4.900000            -1.212436             0.037306
C             3.500000            -3.637307             0.041497
C             4.900000            -3.637307             0.002191
B             5.600000            -2.424871             0.073503
H             5.450000            -0.259808             0.057586
N             7.000000            -2.424871             0.088839
C             5.600000            -4.849742             0.032715
C             7.000000            -4.849742             0.063443
C             7.700000            -3.637307             0.054123
H             7.550000            -1.472243             0.074421
C             9.100000            -3.637307             0.024753
C             7.700000            -6.062178             0.085104
C             9.100000            -6.062178             0.048726
C             9.800000            -4.849742             0.096462
H             9.650000            -2.684679             0.039321
C            11.200000            -4.849742             0.022222
C             9.800000            -7.274613             0.064577
C            11.200000            -7.274613             0.045010
C            11.900000            -6.062178             0.018098
H            11.750000            -3.897114             0.015825
H            11.750000            -8.227241             0.061951
H            13.000000            -6.062178             0.043368
C            -2.800000             0.000000             0.063784
C            -3.500000            -1.212436             0.058150
C            -2.800000            -2.424871             0.003641
C            -1.400000            -2.424871             0.075810
H            -3.350000             0.952628             0.057249
C            -0.700000            -3.637307             0.005708
C             0.700000            -3.637307             0.022595
C             1.400000            -4.849742             0.000591
C             2.800000            -4.849742             0.061019
C             3.500000            -6.062178             0.070084
C             4.900000            -6.062178             0.042689
C             5.600000            -7.274613             0.098023
C             7.000000            -7.274613             0.081236
C             7.700000            -8.487049             0.035676
C             9.100000            -8.487049             0.004891
H             9.650000            -9.439677             0.087986
C            -4.900000            -1.212436             0.060893
C            -5.600000            -2.424871             0.006654
C            -4.900000            -3.637307             0.022923
C            -3.500000            -3.637307             0.064435
H            -5.450000            -0.259808             0.036723
C            -2.800000            -4.849742             0.055134
C            -1.400000            -4.849742             0.074516
C            -0.700000            -6.062178             0.056627
C             0.700000            -6.062178             0.092703
C             1.400000            -7.274613             0.039903
C             2.800000            -7.274613             0.013483
C             3.500000            -8.487049             0.012651
C             4.900000            -8.487049             0.061450
C             5.600000            -9.699485             0.046780
C             7.000000            -9.699485             0.056079
H             7.550000           -10.652112             0.057570
C            -7.000000            -2.424871             0.011735
C            -7.700000            -3.637307             0.041208
C            -7.000000            -4.849742             0.042726
C            -5.600000            -4.849742             0.013360
H            -7.550000            -1.472243             0.005929
C            -4.900000            -6.062178             0.063437
C            -3.500000            -6.062178             0.079188
C            -2.800000            -7.274613             0.009199
C            -1.400000            -7.274613             0.042025
C            -0.700000            -8.487049             0.018287
C             0.700000            -8.487049             0.099379
C             1.400000            -9.699485             0.026062
C             2.800000            -9.699485             0.043412
C             3.500000           -10.911920             0.081240
C             4.900000           -10.911920             0.041515
H             5.450000           -11.864548             0.045426
C            -9.100000            -3.637307             0.038170
C            -9.800000            -4.849742             0.076629
C            -9.100000            -6.062178             0.025447
C            -7.700000            -6.062178             0.068617
H            -9.650000            -2.684679             0.045349
H           -10.900000            -4.849742             0.084154
H            -9.650000            -7.014806             0.056859
C            -7.000000            -7.274613             0.024186
C            -5.600000            -7.274613             0.006954
H            -7.550000            -8.227241             0.089709
C            -4.900000            -8.487049             0.012369
C            -3.500000            -8.487049             0.054286
H            -5.450000            -9.439677             0.003992
C            -2.800000            -9.699485             0.057937
C            -1.400000            -9.699485             0.065385
H            -3.350000           -10.652112             0.017714
C            -0.700000           -10.911920             0.049995
C             0.700000           -10.911920             0.000590
H            -1.250000           -11.864548             0.067026
C             1.400000           -12.124356             0.056297
C             2.800000           -12.124356             0.097387
H             0.850000           -13.076984             0.010785
H             3.350000           -13.076984             0.005655
