106
isomero_18_27
C             0.700000             1.212436             0.085925
C            -0.700000             1.212436             0.031886
C            -1.400000             0.000000             0.021169
C            -0.700000            -1.212436             0.040110
C             0.700000            -1.212436             0.081428
C             1.400000            -0.000000             0.063933
H             1.250000             2.165064             0.037516
H            -1.250000             2.165064             0.034091
C             2.800000             0.000000             0.022512
C             1.400000            -2.424871             0.073601
C             2.800000            -2.424871             0.001917
C             3.500000            -1.212436             0.011111
H             3.350000             0.952628             0.025884
C             4.900000            -1.212436             0.061117
C             3.500000            -3.637307             0.006425
C             4.900000            -3.637307             0.006711
C             5.600000            -2.424871             0.043827
H             5.450000            -0.259808             0.099666
C             7.000000            -2.424871             0.044613
C             5.600000            -4.849742             0.018909
C             7.000000            -4.849742             0.011168
C             7.700000            -3.637307             0.027362
H             7.550000            -1.472243             0.000611
C             9.100000            -3.637307             0.025218
C             7.700000            -6.062178             0.009277
C             9.100000            -6.062178             0.078324
C             9.800000            -4.849742             0.095658
H             9.650000            -2.684679             0.069033
C            11.200000            -4.849742             0.011031
C             9.800000            -7.274613             0.089287
C            11.200000            -7.274613             0.096226
C            11.900000            -6.062178             0.039645
H            11.750000            -3.897114             0.085354
H            11.750000            -8.227241             0.056203
H            13.000000            -6.062178             0.011708
C            -2.800000             0.000000             0.053799
C            -3.500000            -1.212436             0.083782
B            -2.800000            -2.424871             0.054909
C            -1.400000            -2.424871             0.044455
H            -3.350000             0.952628             0.092539
C            -0.700000            -3.637307             0.098794
C             0.700000            -3.637307             0.045211
C             1.400000            -4.849742             0.041889
C             2.800000            -4.849742             0.059507
C             3.500000            -6.062178             0.033945
C             4.900000            -6.062178             0.043776
C             5.600000            -7.274613             0.007094
C             7.000000            -7.274613             0.017966
C             7.700000            -8.487049             0.097132
C             9.100000            -8.487049             0.055330
H             9.650000            -9.439677             0.046333
C            -4.900000            -1.212436             0.038604
C            -5.600000            -2.424871             0.060812
C            -4.900000            -3.637307             0.047347
N            -3.500000            -3.637307             0.069617
H            -5.450000            -0.259808             0.067782
C            -2.800000            -4.849742             0.066753
C            -1.400000            -4.849742             0.073733
C            -0.700000            -6.062178             0.018472
C             0.700000            -6.062178             0.029791
C             1.400000            -7.274613             0.031739
C             2.800000            -7.274613             0.085311
C             3.500000            -8.487049             0.086372
C             4.900000            -8.487049             0.043071
C             5.600000            -9.699485             0.097552
C             7.000000            -9.699485             0.076654
H             7.550000           -10.652112             0.035008
C            -7.000000            -2.424871             0.034283
C            -7.700000            -3.637307             0.052173
C            -7.000000            -4.849742             0.070525
C            -5.600000            -4.849742             0.077214
H            -7.550000            -1.472243             0.097020
C            -4.900000            -6.062178             0.000173
C            -3.500000            -6.062178             0.082891
C            -2.800000            -7.274613             0.072759
C            -1.400000            -7.274613             0.091027
C            -0.700000            -8.487049             0.047664
C             0.700000            -8.487049             0.064523
C             1.400000            -9.699485             0.037211
C             2.800000            -9.699485             0.042303
C             3.500000           -10.911920             0.081376
C             4.900000           -10.911920             0.014063
H             5.450000           -11.864548             0.024340
C            -9.100000            -3.637307             0.096521
C            -9.800000            -4.849742             0.029022
C            -9.100000            -6.062178             0.017896
C            -7.700000            -6.062178             0.001777
H            -9.650000            -2.684679             0.075677
H           -10.900000            -4.849742             0.026083
H            -9.650000            -7.014806             0.048750
C            -7.000000            -7.274613             0.095777
C            -5.600000            -7.274613             0.053546
H            -7.550000            -8.227241             0.010883
C            -4.900000            -8.487049             0.069405
C            -3.500000            -8.487049             0.031937
H            -5.450000            -9.439677             0.037606
C            -2.800000            -9.699485             0.022140
C            -1.400000            -9.699485             0.039484
H            -3.350000           -10.652112             0.089857
C            -0.700000           -10.911920             0.092366
C             0.700000           -10.911920             0.057637
H            -1.250000           -11.864548             0.006354
C             1.400000           -12.124356             0.022840
C             2.800000           -12.124356             0.059592
H             0.850000           -13.076984             0.072098
H             3.350000           -13.076984             0.091445
