106
isomero_8_3
C             0.700000             1.212436             0.062480
C            -0.700000             1.212436             0.026482
C            -1.400000             0.000000             0.020712
C            -0.700000            -1.212436             0.044995
C             0.700000            -1.212436             0.032528
C             1.400000            -0.000000             0.097671
H             1.250000             2.165064             0.065533
H            -1.250000             2.165064             0.050739
N             2.800000             0.000000             0.078786
C             1.400000            -2.424871             0.011749
C             2.800000            -2.424871             0.080284
B             3.500000            -1.212436             0.016878
H             3.350000             0.952628             0.021058
C             4.900000            -1.212436             0.065035
C             3.500000            -3.637307             0.018600
C             4.900000            -3.637307             0.080068
C             5.600000            -2.424871             0.049972
H             5.450000            -0.259808             0.092171
C             7.000000            -2.424871             0.014078
C             5.600000            -4.849742             0.017968
C             7.000000            -4.849742             0.093360
C             7.700000            -3.637307             0.044514
H             7.550000            -1.472243             0.033579
C             9.100000            -3.637307             0.021228
C             7.700000            -6.062178             0.042507
C             9.100000            -6.062178             0.007289
C             9.800000            -4.849742             0.077968
H             9.650000            -2.684679             0.063334
C            11.200000            -4.849742             0.046787
C             9.800000            -7.274613             0.020211
C            11.200000            -7.274613             0.004623
C            11.900000            -6.062178             0.043242
H            11.750000            -3.897114             0.088033
H            11.750000            -8.227241             0.034619
H            13.000000            -6.062178             0.052556
C            -2.800000             0.000000             0.024671
C            -3.500000            -1.212436             0.046051
C            -2.800000            -2.424871             0.087849
C            -1.400000            -2.424871             0.051601
H            -3.350000             0.952628             0.087859
C            -0.700000            -3.637307             0.013437
C             0.700000            -3.637307             0.070349
C             1.400000            -4.849742             0.024704
C             2.800000            -4.849742             0.018119
C             3.500000            -6.062178             0.026328
C             4.900000            -6.062178             0.095312
C             5.600000            -7.274613             0.095524
C             7.000000            -7.274613             0.096242
C             7.700000            -8.487049             0.033105
C             9.100000            -8.487049             0.005027
H             9.650000            -9.439677             0.078920
C            -4.900000            -1.212436             0.010200
C            -5.600000            -2.424871             0.011701
C            -4.900000            -3.637307             0.089609
C            -3.500000            -3.637307             0.034266
H            -5.450000            -0.259808             0.044066
C            -2.800000            -4.849742             0.001642
C            -1.400000            -4.849742             0.078432
C            -0.700000            -6.062178             0.065808
C             0.700000            -6.062178             0.001387
C             1.400000            -7.274613             0.043927
C             2.800000            -7.274613             0.013539
C             3.500000            -8.487049             0.017414
C             4.900000            -8.487049             0.047813
C             5.600000            -9.699485             0.089779
C             7.000000            -9.699485             0.068652
H             7.550000           -10.652112             0.009169
C            -7.000000            -2.424871             0.059908
C            -7.700000            -3.637307             0.032682
C            -7.000000            -4.849742             0.071515
C            -5.600000            -4.849742             0.052399
H            -7.550000            -1.472243             0.057431
C            -4.900000            -6.062178             0.054106
C            -3.500000            -6.062178             0.031445
C            -2.800000            -7.274613             0.099532
C            -1.400000            -7.274613             0.011925
C            -0.700000            -8.487049             0.010700
C             0.700000            -8.487049             0.077755
C             1.400000            -9.699485             0.031242
C             2.800000            -9.699485             0.095885
C             3.500000           -10.911920             0.023976
C             4.900000           -10.911920             0.056871
H             5.450000           -11.864548             0.000017
C            -9.100000            -3.637307             0.083135
C            -9.800000            -4.849742             0.019003
C            -9.100000            -6.062178             0.019314
C            -7.700000            -6.062178             0.014858
H            -9.650000            -2.684679             0.005268
H           -10.900000            -4.849742             0.027482
H            -9.650000            -7.014806             0.099456
C            -7.000000            -7.274613             0.030826
C            -5.600000            -7.274613             0.048905
H            -7.550000            -8.227241             0.020346
C            -4.900000            -8.487049             0.057706
C            -3.500000            -8.487049             0.078227
H            -5.450000            -9.439677             0.062123
C            -2.800000            -9.699485             0.090959
C            -1.400000            -9.699485             0.098972
H            -3.350000           -10.652112             0.083750
C            -0.700000           -10.911920             0.011639
C             0.700000           -10.911920             0.047606
H            -1.250000           -11.864548             0.086233
C             1.400000           -12.124356             0.050534
C             2.800000           -12.124356             0.071033
H             0.850000           -13.076984             0.095124
H             3.350000           -13.076984             0.038865
