106
isomero_32_21
C             0.700000             1.212436             0.034836
C            -0.700000             1.212436             0.067219
C            -1.400000             0.000000             0.067626
C            -0.700000            -1.212436             0.098189
C             0.700000            -1.212436             0.037992
C             1.400000            -0.000000             0.031081
H             1.250000             2.165064             0.091034
H            -1.250000             2.165064             0.028081
C             2.800000             0.000000             0.023574
C             1.400000            -2.424871             0.084874
C             2.800000            -2.424871             0.049359
C             3.500000            -1.212436             0.086670
H             3.350000             0.952628             0.050720
C             4.900000            -1.212436             0.092480
C             3.500000            -3.637307             0.000865
C             4.900000            -3.637307             0.004049
C             5.600000            -2.424871             0.079515
H             5.450000            -0.259808             0.058111
C             7.000000            -2.424871             0.040762
C             5.600000            -4.849742             0.004119
C             7.000000            -4.849742             0.044020
C             7.700000            -3.637307             0.030547
H             7.550000            -1.472243             0.075046
N             9.100000            -3.637307             0.001413
C             7.700000            -6.062178             0.072261
C             9.100000            -6.062178             0.014337
B             9.800000            -4.849742             0.079681
H             9.650000            -2.684679             0.066602
C            11.200000            -4.849742             0.046429
C             9.800000            -7.274613             0.039394
C            11.200000            -7.274613             0.076625
C            11.900000            -6.062178             0.011990
H            11.750000            -3.897114             0.038999
H            11.750000            -8.227241             0.021702
H            13.000000            -6.062178             0.069428
C            -2.800000             0.000000             0.024450
C            -3.500000            -1.212436             0.079990
C            -2.800000            -2.424871             0.030450
C            -1.400000            -2.424871             0.085877
H            -3.350000             0.952628             0.070702
C            -0.700000            -3.637307             0.082343
C             0.700000            -3.637307             0.011385
C             1.400000            -4.849742             0.062655
C             2.800000            -4.849742             0.023260
C             3.500000            -6.062178             0.006553
C             4.900000            -6.062178             0.091598
C             5.600000            -7.274613             0.085073
C             7.000000            -7.274613             0.083583
C             7.700000            -8.487049             0.006945
C             9.100000            -8.487049             0.020648
H             9.650000            -9.439677             0.034380
C            -4.900000            -1.212436             0.029469
C            -5.600000            -2.424871             0.059758
C            -4.900000            -3.637307             0.096916
C            -3.500000            -3.637307             0.023421
H            -5.450000            -0.259808             0.044952
C            -2.800000            -4.849742             0.023864
C            -1.400000            -4.849742             0.099448
C            -0.700000            -6.062178             0.079518
C             0.700000            -6.062178             0.084500
C             1.400000            -7.274613             0.078286
C             2.800000            -7.274613             0.029315
C             3.500000            -8.487049             0.096825
C             4.900000            -8.487049             0.098633
C             5.600000            -9.699485             0.020328
C             7.000000            -9.699485             0.068436
H             7.550000           -10.652112             0.043941
C            -7.000000            -2.424871             0.024837
C            -7.700000            -3.637307             0.042920
C            -7.000000            -4.849742             0.074154
C            -5.600000            -4.849742             0.006882
H            -7.550000            -1.472243             0.090114
C            -4.900000            -6.062178             0.036936
C            -3.500000            -6.062178             0.053143
C            -2.800000            -7.274613             0.088524
C            -1.400000            -7.274613             0.055807
C            -0.700000            -8.487049             0.019481
C             0.700000            -8.487049             0.046637
C             1.400000            -9.699485             0.072107
C             2.800000            -9.699485             0.053105
C             3.500000           -10.911920             0.039141
C             4.900000           -10.911920             0.074157
H             5.450000           -11.864548             0.039828
C            -9.100000            -3.637307             0.028637
C            -9.800000            -4.849742             0.078277
C            -9.100000            -6.062178             0.023726
C            -7.700000            -6.062178             0.098588
H            -9.650000            -2.684679             0.068018
H           -10.900000            -4.849742             0.057198
H            -9.650000            -7.014806             0.004298
C            -7.000000            -7.274613             0.015569
C            -5.600000            -7.274613             0.052468
H            -7.550000            -8.227241             0.090374
C            -4.900000            -8.487049             0.012371
C            -3.500000            -8.487049             0.032576
H            -5.450000            -9.439677             0.008587
C            -2.800000            -9.699485             0.034702
C            -1.400000            -9.699485             0.010131
H            -3.350000           -10.652112             0.062372
C            -0.700000           -10.911920             0.098356
C             0.700000           -10.911920             0.064750
H            -1.250000           -11.864548             0.072293
C             1.400000           -12.124356             0.029635
C             2.800000           -12.124356             0.047983
H             0.850000           -13.076984             0.000582
H             3.350000           -13.076984             0.048132
