106
isomero_14_23
C             0.700000             1.212436             0.062415
C            -0.700000             1.212436             0.002507
C            -1.400000             0.000000             0.053856
C            -0.700000            -1.212436             0.052851
C             0.700000            -1.212436             0.046464
C             1.400000            -0.000000             0.052165
H             1.250000             2.165064             0.058992
H            -1.250000             2.165064             0.099698
C             2.800000             0.000000             0.088247
C             1.400000            -2.424871             0.015920
C             2.800000            -2.424871             0.041658
C             3.500000            -1.212436             0.065641
H             3.350000             0.952628             0.050661
C             4.900000            -1.212436             0.003140
C             3.500000            -3.637307             0.089144
N             4.900000            -3.637307             0.061154
B             5.600000            -2.424871             0.039393
H             5.450000            -0.259808             0.043330
C             7.000000            -2.424871             0.065901
C             5.600000            -4.849742             0.033675
C             7.000000            -4.849742             0.031603
C             7.700000            -3.637307             0.004730
H             7.550000            -1.472243             0.032214
C             9.100000            -3.637307             0.026937
C             7.700000            -6.062178             0.058024
C             9.100000            -6.062178             0.024005
C             9.800000            -4.849742             0.000841
H             9.650000            -2.684679             0.012507
C            11.200000            -4.849742             0.049760
C             9.800000            -7.274613             0.071020
C            11.200000            -7.274613             0.072911
C            11.900000            -6.062178             0.077815
H            11.750000            -3.897114             0.086695
H            11.750000            -8.227241             0.081414
H            13.000000            -6.062178             0.021833
C            -2.800000             0.000000             0.025132
C            -3.500000            -1.212436             0.049350
C            -2.800000            -2.424871             0.022642
C            -1.400000            -2.424871             0.025904
H            -3.350000             0.952628             0.023783
C            -0.700000            -3.637307             0.008275
C             0.700000            -3.637307             0.011369
C             1.400000            -4.849742             0.091304
C             2.800000            -4.849742             0.015694
C             3.500000            -6.062178             0.043052
C             4.900000            -6.062178             0.097757
C             5.600000            -7.274613             0.031014
C             7.000000            -7.274613             0.024403
C             7.700000            -8.487049             0.086008
C             9.100000            -8.487049             0.098558
H             9.650000            -9.439677             0.001673
C            -4.900000            -1.212436             0.015078
C            -5.600000            -2.424871             0.034897
C            -4.900000            -3.637307             0.023434
C            -3.500000            -3.637307             0.068273
H            -5.450000            -0.259808             0.016582
C            -2.800000            -4.849742             0.024628
C            -1.400000            -4.849742             0.062608
C            -0.700000            -6.062178             0.063497
C             0.700000            -6.062178             0.019075
C             1.400000            -7.274613             0.076118
C             2.800000            -7.274613             0.059942
C             3.500000            -8.487049             0.005444
C             4.900000            -8.487049             0.007198
C             5.600000            -9.699485             0.096978
C             7.000000            -9.699485             0.032087
H             7.550000           -10.652112             0.058525
C            -7.000000            -2.424871             0.077798
C            -7.700000            -3.637307             0.081845
C            -7.000000            -4.849742             0.027769
C            -5.600000            -4.849742             0.070695
H            -7.550000            -1.472243             0.054785
C            -4.900000            -6.062178             0.019112
C            -3.500000            -6.062178             0.021221
C            -2.800000            -7.274613             0.019015
C            -1.400000            -7.274613             0.042015
C            -0.700000            -8.487049             0.041177
C             0.700000            -8.487049             0.031439
C             1.400000            -9.699485             0.042195
C             2.800000            -9.699485             0.077058
C             3.500000           -10.911920             0.082821
C             4.900000           -10.911920             0.037609
H             5.450000           -11.864548             0.013848
C            -9.100000            -3.637307             0.002454
C            -9.800000            -4.849742             0.077059
C            -9.100000            -6.062178             0.040654
C            -7.700000            -6.062178             0.042387
H            -9.650000            -2.684679             0.034902
H           -10.900000            -4.849742             0.089339
H            -9.650000            -7.014806             0.054547
C            -7.000000            -7.274613             0.043488
C            -5.600000            -7.274613             0.039805
H            -7.550000            -8.227241             0.039394
C            -4.900000            -8.487049             0.080043
C            -3.500000            -8.487049             0.005066
H            -5.450000            -9.439677             0.013501
C            -2.800000            -9.699485             0.030937
C            -1.400000            -9.699485             0.056742
H            -3.350000           -10.652112             0.036548
C            -0.700000           -10.911920             0.023008
C             0.700000           -10.911920             0.070695
H            -1.250000           -11.864548             0.023957
C             1.400000           -12.124356             0.078690
C             2.800000           -12.124356             0.063954
H             0.850000           -13.076984             0.069440
H             3.350000           -13.076984             0.061283
