106
isomero_25_16
C             0.700000             1.212436             0.028878
C            -0.700000             1.212436             0.064270
C            -1.400000             0.000000             0.059711
C            -0.700000            -1.212436             0.067667
C             0.700000            -1.212436             0.081442
C             1.400000            -0.000000             0.085582
H             1.250000             2.165064             0.016241
H            -1.250000             2.165064             0.072458
C             2.800000             0.000000             0.077169
N             1.400000            -2.424871             0.088297
C             2.800000            -2.424871             0.087549
C             3.500000            -1.212436             0.095702
H             3.350000             0.952628             0.022976
C             4.900000            -1.212436             0.075425
C             3.500000            -3.637307             0.080817
C             4.900000            -3.637307             0.044712
C             5.600000            -2.424871             0.059090
H             5.450000            -0.259808             0.045348
C             7.000000            -2.424871             0.069826
C             5.600000            -4.849742             0.076099
C             7.000000            -4.849742             0.077313
C             7.700000            -3.637307             0.010027
H             7.550000            -1.472243             0.068843
C             9.100000            -3.637307             0.077333
C             7.700000            -6.062178             0.058961
C             9.100000            -6.062178             0.042137
C             9.800000            -4.849742             0.098193
H             9.650000            -2.684679             0.073780
C            11.200000            -4.849742             0.001957
C             9.800000            -7.274613             0.025355
C            11.200000            -7.274613             0.038091
C            11.900000            -6.062178             0.057746
H            11.750000            -3.897114             0.024409
H            11.750000            -8.227241             0.088385
H            13.000000            -6.062178             0.065422
C            -2.800000             0.000000             0.080763
C            -3.500000            -1.212436             0.035565
C            -2.800000            -2.424871             0.019871
C            -1.400000            -2.424871             0.041823
H            -3.350000             0.952628             0.067716
C            -0.700000            -3.637307             0.015213
B             0.700000            -3.637307             0.064541
C             1.400000            -4.849742             0.052537
C             2.800000            -4.849742             0.069987
C             3.500000            -6.062178             0.082469
C             4.900000            -6.062178             0.057886
C             5.600000            -7.274613             0.023658
C             7.000000            -7.274613             0.042625
C             7.700000            -8.487049             0.098712
C             9.100000            -8.487049             0.014055
H             9.650000            -9.439677             0.043795
C            -4.900000            -1.212436             0.071280
C            -5.600000            -2.424871             0.002785
C            -4.900000            -3.637307             0.074870
C            -3.500000            -3.637307             0.043373
H            -5.450000            -0.259808             0.081708
C            -2.800000            -4.849742             0.079723
C            -1.400000            -4.849742             0.045599
C            -0.700000            -6.062178             0.041731
C             0.700000            -6.062178             0.092487
C             1.400000            -7.274613             0.054833
C             2.800000            -7.274613             0.009268
C             3.500000            -8.487049             0.072818
C             4.900000            -8.487049             0.034315
C             5.600000            -9.699485             0.082348
C             7.000000            -9.699485             0.039837
H             7.550000           -10.652112             0.090012
C            -7.000000            -2.424871             0.048423
C            -7.700000            -3.637307             0.027463
C            -7.000000            -4.849742             0.066123
C            -5.600000            -4.849742             0.061905
H            -7.550000            -1.472243             0.066122
C            -4.900000            -6.062178             0.066853
C            -3.500000            -6.062178             0.022404
C            -2.800000            -7.274613             0.017939
C            -1.400000            -7.274613             0.064137
C            -0.700000            -8.487049             0.001186
C             0.700000            -8.487049             0.093079
C             1.400000            -9.699485             0.042436
C             2.800000            -9.699485             0.009016
C             3.500000           -10.911920             0.006469
C             4.900000           -10.911920             0.077793
H             5.450000           -11.864548             0.031406
C            -9.100000            -3.637307             0.053961
C            -9.800000            -4.849742             0.029287
C            -9.100000            -6.062178             0.048032
C            -7.700000            -6.062178             0.046099
H            -9.650000            -2.684679             0.031230
H           -10.900000            -4.849742             0.071612
H            -9.650000            -7.014806             0.063881
C            -7.000000            -7.274613             0.076063
C            -5.600000            -7.274613             0.088359
H            -7.550000            -8.227241             0.090279
C            -4.900000            -8.487049             0.038006
C            -3.500000            -8.487049             0.096874
H            -5.450000            -9.439677             0.030632
C            -2.800000            -9.699485             0.079531
C            -1.400000            -9.699485             0.049936
H            -3.350000           -10.652112             0.051723
C            -0.700000           -10.911920             0.018565
C             0.700000           -10.911920             0.083345
H            -1.250000           -11.864548             0.000945
C             1.400000           -12.124356             0.066224
C             2.800000           -12.124356             0.065929
H             0.850000           -13.076984             0.080229
H             3.350000           -13.076984             0.046137
