106
isomero_11_6
C             0.700000             1.212436             0.030691
C            -0.700000             1.212436             0.087164
C            -1.400000             0.000000             0.029299
C            -0.700000            -1.212436             0.025499
C             0.700000            -1.212436             0.059966
C             1.400000            -0.000000             0.062204
H             1.250000             2.165064             0.081054
H            -1.250000             2.165064             0.007663
C             2.800000             0.000000             0.010260
C             1.400000            -2.424871             0.093585
C             2.800000            -2.424871             0.064261
C             3.500000            -1.212436             0.051792
H             3.350000             0.952628             0.073408
C             4.900000            -1.212436             0.076204
C             3.500000            -3.637307             0.049044
C             4.900000            -3.637307             0.001345
C             5.600000            -2.424871             0.081568
H             5.450000            -0.259808             0.096532
C             7.000000            -2.424871             0.019728
C             5.600000            -4.849742             0.067180
C             7.000000            -4.849742             0.019548
C             7.700000            -3.637307             0.092793
H             7.550000            -1.472243             0.091852
C             9.100000            -3.637307             0.029697
C             7.700000            -6.062178             0.051642
C             9.100000            -6.062178             0.013163
C             9.800000            -4.849742             0.010644
H             9.650000            -2.684679             0.056682
C            11.200000            -4.849742             0.063270
C             9.800000            -7.274613             0.015596
C            11.200000            -7.274613             0.004354
C            11.900000            -6.062178             0.090312
H            11.750000            -3.897114             0.023300
H            11.750000            -8.227241             0.046963
H            13.000000            -6.062178             0.044758
N            -2.800000             0.000000             0.098872
B            -3.500000            -1.212436             0.022882
C            -2.800000            -2.424871             0.013793
C            -1.400000            -2.424871             0.034976
H            -3.350000             0.952628             0.055156
C            -0.700000            -3.637307             0.088194
C             0.700000            -3.637307             0.012750
C             1.400000            -4.849742             0.035084
C             2.800000            -4.849742             0.016919
C             3.500000            -6.062178             0.097941
C             4.900000            -6.062178             0.093702
C             5.600000            -7.274613             0.031103
C             7.000000            -7.274613             0.002736
C             7.700000            -8.487049             0.076263
C             9.100000            -8.487049             0.005401
H             9.650000            -9.439677             0.081579
C            -4.900000            -1.212436             0.018459
C            -5.600000            -2.424871             0.037838
C            -4.900000            -3.637307             0.044909
C            -3.500000            -3.637307             0.052811
H            -5.450000            -0.259808             0.073809
C            -2.800000            -4.849742             0.048256
C            -1.400000            -4.849742             0.009941
C            -0.700000            -6.062178             0.026926
C             0.700000            -6.062178             0.086264
C             1.400000            -7.274613             0.049426
C             2.800000            -7.274613             0.078819
C             3.500000            -8.487049             0.028568
C             4.900000            -8.487049             0.092358
C             5.600000            -9.699485             0.076360
C             7.000000            -9.699485             0.053069
H             7.550000           -10.652112             0.068167
C            -7.000000            -2.424871             0.013609
C            -7.700000            -3.637307             0.084756
C            -7.000000            -4.849742             0.035435
C            -5.600000            -4.849742             0.074007
H            -7.550000            -1.472243             0.023208
C            -4.900000            -6.062178             0.015044
C            -3.500000            -6.062178             0.006193
C            -2.800000            -7.274613             0.074246
C            -1.400000            -7.274613             0.093620
C            -0.700000            -8.487049             0.041257
C             0.700000            -8.487049             0.097638
C             1.400000            -9.699485             0.033817
C             2.800000            -9.699485             0.036068
C             3.500000           -10.911920             0.006337
C             4.900000           -10.911920             0.087243
H             5.450000           -11.864548             0.060296
C            -9.100000            -3.637307             0.056797
C            -9.800000            -4.849742             0.027537
C            -9.100000            -6.062178             0.076303
C            -7.700000            -6.062178             0.060783
H            -9.650000            -2.684679             0.051995
H           -10.900000            -4.849742             0.009387
H            -9.650000            -7.014806             0.027107
C            -7.000000            -7.274613             0.007870
C            -5.600000            -7.274613             0.003461
H            -7.550000            -8.227241             0.022228
C            -4.900000            -8.487049             0.096462
C            -3.500000            -8.487049             0.029253
H            -5.450000            -9.439677             0.046267
C            -2.800000            -9.699485             0.068051
C            -1.400000            -9.699485             0.019910
H            -3.350000           -10.652112             0.057130
C            -0.700000           -10.911920             0.005499
C             0.700000           -10.911920             0.065715
H            -1.250000           -11.864548             0.005175
C             1.400000           -12.124356             0.091887
C             2.800000           -12.124356             0.019049
H             0.850000           -13.076984             0.079079
H             3.350000           -13.076984             0.027631
