106
isomero_9_4
C             0.700000             1.212436             0.057930
C            -0.700000             1.212436             0.087023
C            -1.400000             0.000000             0.030888
C            -0.700000            -1.212436             0.060060
B             0.700000            -1.212436             0.088410
N             1.400000            -0.000000             0.095436
H             1.250000             2.165064             0.089341
H            -1.250000             2.165064             0.029122
C             2.800000             0.000000             0.052678
C             1.400000            -2.424871             0.026516
C             2.800000            -2.424871             0.084034
C             3.500000            -1.212436             0.059907
H             3.350000             0.952628             0.084970
C             4.900000            -1.212436             0.038479
C             3.500000            -3.637307             0.064209
C             4.900000            -3.637307             0.043558
C             5.600000            -2.424871             0.014125
H             5.450000            -0.259808             0.056412
C             7.000000            -2.424871             0.072455
C             5.600000            -4.849742             0.022961
C             7.000000            -4.849742             0.004429
C             7.700000            -3.637307             0.025057
H             7.550000            -1.472243             0.004589
C             9.100000            -3.637307             0.067479
C             7.700000            -6.062178             0.086270
C             9.100000            -6.062178             0.003524
C             9.800000            -4.849742             0.079184
H             9.650000            -2.684679             0.096797
C            11.200000            -4.849742             0.085366
C             9.800000            -7.274613             0.096532
C            11.200000            -7.274613             0.026513
C            11.900000            -6.062178             0.028273
H            11.750000            -3.897114             0.057770
H            11.750000            -8.227241             0.068728
H            13.000000            -6.062178             0.052037
C            -2.800000             0.000000             0.034191
C            -3.500000            -1.212436             0.028621
C            -2.800000            -2.424871             0.078414
C            -1.400000            -2.424871             0.097785
H            -3.350000             0.952628             0.035555
C            -0.700000            -3.637307             0.013675
C             0.700000            -3.637307             0.071902
C             1.400000            -4.849742             0.023005
C             2.800000            -4.849742             0.004182
C             3.500000            -6.062178             0.079978
C             4.900000            -6.062178             0.082497
C             5.600000            -7.274613             0.046275
C             7.000000            -7.274613             0.055276
C             7.700000            -8.487049             0.028641
C             9.100000            -8.487049             0.054394
H             9.650000            -9.439677             0.087453
C            -4.900000            -1.212436             0.046180
C            -5.600000            -2.424871             0.086025
C            -4.900000            -3.637307             0.005897
C            -3.500000            -3.637307             0.069646
H            -5.450000            -0.259808             0.059027
C            -2.800000            -4.849742             0.083190
C            -1.400000            -4.849742             0.079039
C            -0.700000            -6.062178             0.023160
C             0.700000            -6.062178             0.065882
C             1.400000            -7.274613             0.069468
C             2.800000            -7.274613             0.009822
C             3.500000            -8.487049             0.020601
C             4.900000            -8.487049             0.039694
C             5.600000            -9.699485             0.088801
C             7.000000            -9.699485             0.076784
H             7.550000           -10.652112             0.070094
C            -7.000000            -2.424871             0.040587
C            -7.700000            -3.637307             0.007643
C            -7.000000            -4.849742             0.018511
C            -5.600000            -4.849742             0.059967
H            -7.550000            -1.472243             0.056159
C            -4.900000            -6.062178             0.026859
C            -3.500000            -6.062178             0.023323
C            -2.800000            -7.274613             0.069687
C            -1.400000            -7.274613             0.062289
C            -0.700000            -8.487049             0.008285
C             0.700000            -8.487049             0.072317
C             1.400000            -9.699485             0.060855
C             2.800000            -9.699485             0.057402
C             3.500000           -10.911920             0.077402
C             4.900000           -10.911920             0.033856
H             5.450000           -11.864548             0.000440
C            -9.100000            -3.637307             0.089501
C            -9.800000            -4.849742             0.091215
C            -9.100000            -6.062178             0.041649
C            -7.700000            -6.062178             0.080709
H            -9.650000            -2.684679             0.048056
H           -10.900000            -4.849742             0.005999
H            -9.650000            -7.014806             0.035500
C            -7.000000            -7.274613             0.023040
C            -5.600000            -7.274613             0.005742
H            -7.550000            -8.227241             0.067911
C            -4.900000            -8.487049             0.066684
C            -3.500000            -8.487049             0.000950
H            -5.450000            -9.439677             0.034237
C            -2.800000            -9.699485             0.094538
C            -1.400000            -9.699485             0.023964
H            -3.350000           -10.652112             0.010166
C            -0.700000           -10.911920             0.049203
C             0.700000           -10.911920             0.003883
H            -1.250000           -11.864548             0.017150
C             1.400000           -12.124356             0.077542
C             2.800000           -12.124356             0.090542
H             0.850000           -13.076984             0.094003
H             3.350000           -13.076984             0.065079
