106
isomero_19_20
C             0.700000             1.212436             0.066375
C            -0.700000             1.212436             0.047299
C            -1.400000             0.000000             0.044044
C            -0.700000            -1.212436             0.042950
C             0.700000            -1.212436             0.010625
C             1.400000            -0.000000             0.053948
H             1.250000             2.165064             0.087203
H            -1.250000             2.165064             0.081628
C             2.800000             0.000000             0.046275
C             1.400000            -2.424871             0.051510
C             2.800000            -2.424871             0.045646
C             3.500000            -1.212436             0.019444
H             3.350000             0.952628             0.086065
C             4.900000            -1.212436             0.001744
C             3.500000            -3.637307             0.034206
C             4.900000            -3.637307             0.026420
C             5.600000            -2.424871             0.014719
H             5.450000            -0.259808             0.095048
C             7.000000            -2.424871             0.031873
C             5.600000            -4.849742             0.084183
C             7.000000            -4.849742             0.065851
C             7.700000            -3.637307             0.033464
H             7.550000            -1.472243             0.003663
C             9.100000            -3.637307             0.050588
C             7.700000            -6.062178             0.060926
C             9.100000            -6.062178             0.066536
C             9.800000            -4.849742             0.008722
H             9.650000            -2.684679             0.017136
C            11.200000            -4.849742             0.099471
C             9.800000            -7.274613             0.057204
C            11.200000            -7.274613             0.098279
C            11.900000            -6.062178             0.023566
H            11.750000            -3.897114             0.059815
H            11.750000            -8.227241             0.092258
H            13.000000            -6.062178             0.011702
C            -2.800000             0.000000             0.039434
C            -3.500000            -1.212436             0.079164
C            -2.800000            -2.424871             0.090592
C            -1.400000            -2.424871             0.017712
H            -3.350000             0.952628             0.011487
C            -0.700000            -3.637307             0.003085
C             0.700000            -3.637307             0.031874
C             1.400000            -4.849742             0.085951
C             2.800000            -4.849742             0.033461
C             3.500000            -6.062178             0.047573
C             4.900000            -6.062178             0.094405
C             5.600000            -7.274613             0.003365
C             7.000000            -7.274613             0.063177
C             7.700000            -8.487049             0.081295
C             9.100000            -8.487049             0.050892
H             9.650000            -9.439677             0.097084
C            -4.900000            -1.212436             0.086822
B            -5.600000            -2.424871             0.023880
C            -4.900000            -3.637307             0.034422
C            -3.500000            -3.637307             0.004648
H            -5.450000            -0.259808             0.056775
C            -2.800000            -4.849742             0.058478
C            -1.400000            -4.849742             0.003305
C            -0.700000            -6.062178             0.083684
C             0.700000            -6.062178             0.065876
C             1.400000            -7.274613             0.092259
C             2.800000            -7.274613             0.093722
C             3.500000            -8.487049             0.002185
C             4.900000            -8.487049             0.008885
C             5.600000            -9.699485             0.018665
C             7.000000            -9.699485             0.090338
H             7.550000           -10.652112             0.085996
N            -7.000000            -2.424871             0.055618
C            -7.700000            -3.637307             0.024298
C            -7.000000            -4.849742             0.088093
C            -5.600000            -4.849742             0.064540
H            -7.550000            -1.472243             0.030398
C            -4.900000            -6.062178             0.046881
C            -3.500000            -6.062178             0.033444
C            -2.800000            -7.274613             0.036277
C            -1.400000            -7.274613             0.075794
C            -0.700000            -8.487049             0.003525
C             0.700000            -8.487049             0.089930
C             1.400000            -9.699485             0.019891
C             2.800000            -9.699485             0.097664
C             3.500000           -10.911920             0.007689
C             4.900000           -10.911920             0.021805
H             5.450000           -11.864548             0.014055
C            -9.100000            -3.637307             0.038944
C            -9.800000            -4.849742             0.071207
C            -9.100000            -6.062178             0.003265
C            -7.700000            -6.062178             0.064976
H            -9.650000            -2.684679             0.049110
H           -10.900000            -4.849742             0.096851
H            -9.650000            -7.014806             0.093368
C            -7.000000            -7.274613             0.029679
C            -5.600000            -7.274613             0.019853
H            -7.550000            -8.227241             0.021922
C            -4.900000            -8.487049             0.098046
C            -3.500000            -8.487049             0.002415
H            -5.450000            -9.439677             0.039415
C            -2.800000            -9.699485             0.024687
C            -1.400000            -9.699485             0.005973
H            -3.350000           -10.652112             0.027872
C            -0.700000           -10.911920             0.008853
C             0.700000           -10.911920             0.003204
H            -1.250000           -11.864548             0.092794
C             1.400000           -12.124356             0.013795
C             2.800000           -12.124356             0.074245
H             0.850000           -13.076984             0.067181
H             3.350000           -13.076984             0.092590
