106
isomero_37_48
C             0.700000             1.212436             0.051086
C            -0.700000             1.212436             0.093615
C            -1.400000             0.000000             0.069752
C            -0.700000            -1.212436             0.001401
C             0.700000            -1.212436             0.069964
C             1.400000            -0.000000             0.046239
H             1.250000             2.165064             0.079151
H            -1.250000             2.165064             0.044177
C             2.800000             0.000000             0.028029
C             1.400000            -2.424871             0.077944
C             2.800000            -2.424871             0.010308
C             3.500000            -1.212436             0.076113
H             3.350000             0.952628             0.037299
C             4.900000            -1.212436             0.071303
C             3.500000            -3.637307             0.089654
C             4.900000            -3.637307             0.036543
C             5.600000            -2.424871             0.063453
H             5.450000            -0.259808             0.058173
C             7.000000            -2.424871             0.067479
C             5.600000            -4.849742             0.070824
C             7.000000            -4.849742             0.041256
C             7.700000            -3.637307             0.072222
H             7.550000            -1.472243             0.086234
C             9.100000            -3.637307             0.049623
C             7.700000            -6.062178             0.004270
C             9.100000            -6.062178             0.068703
C             9.800000            -4.849742             0.061674
H             9.650000            -2.684679             0.016857
C            11.200000            -4.849742             0.058678
C             9.800000            -7.274613             0.076311
C            11.200000            -7.274613             0.032848
C            11.900000            -6.062178             0.007324
H            11.750000            -3.897114             0.052995
H            11.750000            -8.227241             0.000134
H            13.000000            -6.062178             0.064293
C            -2.800000             0.000000             0.034858
C            -3.500000            -1.212436             0.025934
C            -2.800000            -2.424871             0.008710
C            -1.400000            -2.424871             0.062634
H            -3.350000             0.952628             0.064219
C            -0.700000            -3.637307             0.032696
C             0.700000            -3.637307             0.005317
C             1.400000            -4.849742             0.073610
C             2.800000            -4.849742             0.099888
C             3.500000            -6.062178             0.057969
C             4.900000            -6.062178             0.059003
C             5.600000            -7.274613             0.083825
C             7.000000            -7.274613             0.044431
C             7.700000            -8.487049             0.067606
C             9.100000            -8.487049             0.022247
H             9.650000            -9.439677             0.030495
C            -4.900000            -1.212436             0.000074
C            -5.600000            -2.424871             0.026001
C            -4.900000            -3.637307             0.055669
C            -3.500000            -3.637307             0.076204
H            -5.450000            -0.259808             0.007413
C            -2.800000            -4.849742             0.016931
B            -1.400000            -4.849742             0.012840
N            -0.700000            -6.062178             0.053262
C             0.700000            -6.062178             0.078339
C             1.400000            -7.274613             0.002841
C             2.800000            -7.274613             0.088853
C             3.500000            -8.487049             0.002072
C             4.900000            -8.487049             0.054949
C             5.600000            -9.699485             0.019151
C             7.000000            -9.699485             0.053692
H             7.550000           -10.652112             0.039201
C            -7.000000            -2.424871             0.008628
C            -7.700000            -3.637307             0.041069
C            -7.000000            -4.849742             0.026004
C            -5.600000            -4.849742             0.019248
H            -7.550000            -1.472243             0.035353
C            -4.900000            -6.062178             0.015677
C            -3.500000            -6.062178             0.055373
C            -2.800000            -7.274613             0.020278
C            -1.400000            -7.274613             0.026310
C            -0.700000            -8.487049             0.000205
C             0.700000            -8.487049             0.081556
C             1.400000            -9.699485             0.011324
C             2.800000            -9.699485             0.016342
C             3.500000           -10.911920             0.057583
C             4.900000           -10.911920             0.052798
H             5.450000           -11.864548             0.076968
C            -9.100000            -3.637307             0.063700
C            -9.800000            -4.849742             0.029446
C            -9.100000            -6.062178             0.076326
C            -7.700000            -6.062178             0.021647
H            -9.650000            -2.684679             0.088034
H           -10.900000            -4.849742             0.015367
H            -9.650000            -7.014806             0.067113
C            -7.000000            -7.274613             0.027045
C            -5.600000            -7.274613             0.007667
H            -7.550000            -8.227241             0.073931
C            -4.900000            -8.487049             0.008434
C            -3.500000            -8.487049             0.046565
H            -5.450000            -9.439677             0.058838
C            -2.800000            -9.699485             0.042072
C            -1.400000            -9.699485             0.014462
H            -3.350000           -10.652112             0.023719
C            -0.700000           -10.911920             0.049096
C             0.700000           -10.911920             0.095515
H            -1.250000           -11.864548             0.011050
C             1.400000           -12.124356             0.051787
C             2.800000           -12.124356             0.022506
H             0.850000           -13.076984             0.095087
H             3.350000           -13.076984             0.018298
