106
isomero_26_17
C             0.700000             1.212436             0.030337
C            -0.700000             1.212436             0.093634
C            -1.400000             0.000000             0.061001
C            -0.700000            -1.212436             0.066221
C             0.700000            -1.212436             0.081722
C             1.400000            -0.000000             0.010514
H             1.250000             2.165064             0.014281
H            -1.250000             2.165064             0.008517
C             2.800000             0.000000             0.070670
C             1.400000            -2.424871             0.084548
C             2.800000            -2.424871             0.030597
C             3.500000            -1.212436             0.031220
H             3.350000             0.952628             0.023256
C             4.900000            -1.212436             0.046399
C             3.500000            -3.637307             0.038120
C             4.900000            -3.637307             0.019902
C             5.600000            -2.424871             0.071756
H             5.450000            -0.259808             0.079410
C             7.000000            -2.424871             0.052950
C             5.600000            -4.849742             0.002312
C             7.000000            -4.849742             0.024834
C             7.700000            -3.637307             0.080335
H             7.550000            -1.472243             0.077351
C             9.100000            -3.637307             0.089504
C             7.700000            -6.062178             0.031218
C             9.100000            -6.062178             0.005687
C             9.800000            -4.849742             0.037944
H             9.650000            -2.684679             0.066411
C            11.200000            -4.849742             0.023996
C             9.800000            -7.274613             0.093876
C            11.200000            -7.274613             0.043526
C            11.900000            -6.062178             0.057098
H            11.750000            -3.897114             0.047043
H            11.750000            -8.227241             0.087484
H            13.000000            -6.062178             0.085357
C            -2.800000             0.000000             0.027959
C            -3.500000            -1.212436             0.044039
C            -2.800000            -2.424871             0.035040
N            -1.400000            -2.424871             0.008709
H            -3.350000             0.952628             0.089601
B            -0.700000            -3.637307             0.054521
C             0.700000            -3.637307             0.097175
C             1.400000            -4.849742             0.072760
C             2.800000            -4.849742             0.009704
C             3.500000            -6.062178             0.075840
C             4.900000            -6.062178             0.090049
C             5.600000            -7.274613             0.054182
C             7.000000            -7.274613             0.014911
C             7.700000            -8.487049             0.084584
C             9.100000            -8.487049             0.090846
H             9.650000            -9.439677             0.063077
C            -4.900000            -1.212436             0.035704
C            -5.600000            -2.424871             0.006215
C            -4.900000            -3.637307             0.046890
C            -3.500000            -3.637307             0.044236
H            -5.450000            -0.259808             0.010435
C            -2.800000            -4.849742             0.029990
C            -1.400000            -4.849742             0.052344
C            -0.700000            -6.062178             0.023812
C             0.700000            -6.062178             0.006612
C             1.400000            -7.274613             0.096182
C             2.800000            -7.274613             0.069208
C             3.500000            -8.487049             0.066761
C             4.900000            -8.487049             0.001839
C             5.600000            -9.699485             0.059142
C             7.000000            -9.699485             0.039769
H             7.550000           -10.652112             0.087648
C            -7.000000            -2.424871             0.047302
C            -7.700000            -3.637307             0.036255
C            -7.000000            -4.849742             0.073908
C            -5.600000            -4.849742             0.098938
H            -7.550000            -1.472243             0.049187
C            -4.900000            -6.062178             0.012140
C            -3.500000            -6.062178             0.050844
C            -2.800000            -7.274613             0.017288
C            -1.400000            -7.274613             0.008883
C            -0.700000            -8.487049             0.090224
C             0.700000            -8.487049             0.026928
C             1.400000            -9.699485             0.028067
C             2.800000            -9.699485             0.053154
C             3.500000           -10.911920             0.008097
C             4.900000           -10.911920             0.057022
H             5.450000           -11.864548             0.039118
C            -9.100000            -3.637307             0.032182
C            -9.800000            -4.849742             0.030323
C            -9.100000            -6.062178             0.035733
C            -7.700000            -6.062178             0.032421
H            -9.650000            -2.684679             0.094986
H           -10.900000            -4.849742             0.005814
H            -9.650000            -7.014806             0.043892
C            -7.000000            -7.274613             0.009987
C            -5.600000            -7.274613             0.062628
H            -7.550000            -8.227241             0.014387
C            -4.900000            -8.487049             0.021841
C            -3.500000            -8.487049             0.090238
H            -5.450000            -9.439677             0.085570
C            -2.800000            -9.699485             0.016996
C            -1.400000            -9.699485             0.072969
H            -3.350000           -10.652112             0.092857
C            -0.700000           -10.911920             0.028272
C             0.700000           -10.911920             0.076347
H            -1.250000           -11.864548             0.064351
C             1.400000           -12.124356             0.089370
C             2.800000           -12.124356             0.084073
H             0.850000           -13.076984             0.081657
H             3.350000           -13.076984             0.042508
