106
isomero_40_39
C             0.700000             1.212436             0.052524
C            -0.700000             1.212436             0.053411
C            -1.400000             0.000000             0.043768
C            -0.700000            -1.212436             0.032218
C             0.700000            -1.212436             0.050156
C             1.400000            -0.000000             0.016150
H             1.250000             2.165064             0.002112
H            -1.250000             2.165064             0.058544
C             2.800000             0.000000             0.027382
C             1.400000            -2.424871             0.060332
C             2.800000            -2.424871             0.065671
C             3.500000            -1.212436             0.020799
H             3.350000             0.952628             0.095973
C             4.900000            -1.212436             0.045049
C             3.500000            -3.637307             0.008819
C             4.900000            -3.637307             0.093637
C             5.600000            -2.424871             0.096856
H             5.450000            -0.259808             0.075101
C             7.000000            -2.424871             0.073828
C             5.600000            -4.849742             0.037467
C             7.000000            -4.849742             0.096531
C             7.700000            -3.637307             0.040815
H             7.550000            -1.472243             0.010808
C             9.100000            -3.637307             0.038206
C             7.700000            -6.062178             0.043499
C             9.100000            -6.062178             0.019800
C             9.800000            -4.849742             0.083539
H             9.650000            -2.684679             0.061499
C            11.200000            -4.849742             0.013857
C             9.800000            -7.274613             0.045622
C            11.200000            -7.274613             0.080725
C            11.900000            -6.062178             0.044527
H            11.750000            -3.897114             0.035037
H            11.750000            -8.227241             0.082313
H            13.000000            -6.062178             0.080277
C            -2.800000             0.000000             0.018611
C            -3.500000            -1.212436             0.045887
C            -2.800000            -2.424871             0.076108
C            -1.400000            -2.424871             0.035102
H            -3.350000             0.952628             0.008641
C            -0.700000            -3.637307             0.040572
C             0.700000            -3.637307             0.052915
C             1.400000            -4.849742             0.076912
C             2.800000            -4.849742             0.053789
C             3.500000            -6.062178             0.093624
C             4.900000            -6.062178             0.092010
C             5.600000            -7.274613             0.063202
C             7.000000            -7.274613             0.035944
C             7.700000            -8.487049             0.043958
C             9.100000            -8.487049             0.047767
H             9.650000            -9.439677             0.013392
C            -4.900000            -1.212436             0.026952
C            -5.600000            -2.424871             0.002312
C            -4.900000            -3.637307             0.011942
C            -3.500000            -3.637307             0.027999
H            -5.450000            -0.259808             0.076342
C            -2.800000            -4.849742             0.007763
C            -1.400000            -4.849742             0.063666
C            -0.700000            -6.062178             0.037485
C             0.700000            -6.062178             0.033369
C             1.400000            -7.274613             0.057823
C             2.800000            -7.274613             0.097153
C             3.500000            -8.487049             0.084369
C             4.900000            -8.487049             0.096832
C             5.600000            -9.699485             0.019889
C             7.000000            -9.699485             0.003979
H             7.550000           -10.652112             0.026657
C            -7.000000            -2.424871             0.013711
C            -7.700000            -3.637307             0.083526
B            -7.000000            -4.849742             0.031069
N            -5.600000            -4.849742             0.020355
H            -7.550000            -1.472243             0.082371
C            -4.900000            -6.062178             0.060558
C            -3.500000            -6.062178             0.072399
C            -2.800000            -7.274613             0.032927
C            -1.400000            -7.274613             0.002797
C            -0.700000            -8.487049             0.084739
C             0.700000            -8.487049             0.066498
C             1.400000            -9.699485             0.002604
C             2.800000            -9.699485             0.048936
C             3.500000           -10.911920             0.057801
C             4.900000           -10.911920             0.059206
H             5.450000           -11.864548             0.028052
C            -9.100000            -3.637307             0.012817
C            -9.800000            -4.849742             0.018003
C            -9.100000            -6.062178             0.093936
C            -7.700000            -6.062178             0.034616
H            -9.650000            -2.684679             0.024311
H           -10.900000            -4.849742             0.045685
H            -9.650000            -7.014806             0.045096
C            -7.000000            -7.274613             0.022841
C            -5.600000            -7.274613             0.006736
H            -7.550000            -8.227241             0.050473
C            -4.900000            -8.487049             0.075127
C            -3.500000            -8.487049             0.051719
H            -5.450000            -9.439677             0.033941
C            -2.800000            -9.699485             0.092575
C            -1.400000            -9.699485             0.007112
H            -3.350000           -10.652112             0.004302
C            -0.700000           -10.911920             0.005393
C             0.700000           -10.911920             0.029613
H            -1.250000           -11.864548             0.043873
C             1.400000           -12.124356             0.027107
C             2.800000           -12.124356             0.045499
H             0.850000           -13.076984             0.094533
H             3.350000           -13.076984             0.080510
