106
isomero_28_27
C             0.700000             1.212436             0.089515
C            -0.700000             1.212436             0.098675
C            -1.400000             0.000000             0.007231
C            -0.700000            -1.212436             0.032821
C             0.700000            -1.212436             0.055535
C             1.400000            -0.000000             0.020736
H             1.250000             2.165064             0.061089
H            -1.250000             2.165064             0.098092
C             2.800000             0.000000             0.096416
C             1.400000            -2.424871             0.031654
C             2.800000            -2.424871             0.097942
C             3.500000            -1.212436             0.025552
H             3.350000             0.952628             0.044631
C             4.900000            -1.212436             0.093766
C             3.500000            -3.637307             0.033225
C             4.900000            -3.637307             0.051973
C             5.600000            -2.424871             0.061145
H             5.450000            -0.259808             0.033898
C             7.000000            -2.424871             0.059164
C             5.600000            -4.849742             0.022316
C             7.000000            -4.849742             0.034878
C             7.700000            -3.637307             0.080232
H             7.550000            -1.472243             0.039180
C             9.100000            -3.637307             0.064165
C             7.700000            -6.062178             0.039280
C             9.100000            -6.062178             0.014442
C             9.800000            -4.849742             0.038825
H             9.650000            -2.684679             0.098156
C            11.200000            -4.849742             0.092950
C             9.800000            -7.274613             0.069464
C            11.200000            -7.274613             0.053048
C            11.900000            -6.062178             0.068886
H            11.750000            -3.897114             0.006894
H            11.750000            -8.227241             0.097046
H            13.000000            -6.062178             0.080645
C            -2.800000             0.000000             0.079656
C            -3.500000            -1.212436             0.094106
C            -2.800000            -2.424871             0.093261
C            -1.400000            -2.424871             0.084706
H            -3.350000             0.952628             0.005201
C            -0.700000            -3.637307             0.008729
C             0.700000            -3.637307             0.098999
C             1.400000            -4.849742             0.093612
C             2.800000            -4.849742             0.069497
C             3.500000            -6.062178             0.076940
C             4.900000            -6.062178             0.053744
C             5.600000            -7.274613             0.077006
C             7.000000            -7.274613             0.086476
C             7.700000            -8.487049             0.073948
C             9.100000            -8.487049             0.091778
H             9.650000            -9.439677             0.005384
C            -4.900000            -1.212436             0.092829
C            -5.600000            -2.424871             0.088965
B            -4.900000            -3.637307             0.040796
N            -3.500000            -3.637307             0.087943
H            -5.450000            -0.259808             0.077918
C            -2.800000            -4.849742             0.096570
C            -1.400000            -4.849742             0.050540
C            -0.700000            -6.062178             0.042238
C             0.700000            -6.062178             0.064135
C             1.400000            -7.274613             0.091004
C             2.800000            -7.274613             0.032686
C             3.500000            -8.487049             0.034115
C             4.900000            -8.487049             0.098130
C             5.600000            -9.699485             0.060948
C             7.000000            -9.699485             0.088887
H             7.550000           -10.652112             0.035284
C            -7.000000            -2.424871             0.037301
C            -7.700000            -3.637307             0.044788
C            -7.000000            -4.849742             0.045804
C            -5.600000            -4.849742             0.032307
H            -7.550000            -1.472243             0.027147
C            -4.900000            -6.062178             0.007068
C            -3.500000            -6.062178             0.060915
C            -2.800000            -7.274613             0.085966
C            -1.400000            -7.274613             0.029494
C            -0.700000            -8.487049             0.098373
C             0.700000            -8.487049             0.039607
C             1.400000            -9.699485             0.084906
C             2.800000            -9.699485             0.032613
C             3.500000           -10.911920             0.096799
C             4.900000           -10.911920             0.061332
H             5.450000           -11.864548             0.092079
C            -9.100000            -3.637307             0.036595
C            -9.800000            -4.849742             0.001687
C            -9.100000            -6.062178             0.051264
C            -7.700000            -6.062178             0.089130
H            -9.650000            -2.684679             0.009478
H           -10.900000            -4.849742             0.052344
H            -9.650000            -7.014806             0.058714
C            -7.000000            -7.274613             0.039866
C            -5.600000            -7.274613             0.059317
H            -7.550000            -8.227241             0.029028
C            -4.900000            -8.487049             0.047676
C            -3.500000            -8.487049             0.011150
H            -5.450000            -9.439677             0.012330
C            -2.800000            -9.699485             0.077740
C            -1.400000            -9.699485             0.065562
H            -3.350000           -10.652112             0.061165
C            -0.700000           -10.911920             0.027064
C             0.700000           -10.911920             0.047482
H            -1.250000           -11.864548             0.023637
C             1.400000           -12.124356             0.010207
C             2.800000           -12.124356             0.094754
H             0.850000           -13.076984             0.083192
H             3.350000           -13.076984             0.044215
