106
isomero_34_45
C             0.700000             1.212436             0.045767
C            -0.700000             1.212436             0.008611
C            -1.400000             0.000000             0.006059
C            -0.700000            -1.212436             0.028840
C             0.700000            -1.212436             0.013014
C             1.400000            -0.000000             0.049318
H             1.250000             2.165064             0.001379
H            -1.250000             2.165064             0.032862
C             2.800000             0.000000             0.065773
C             1.400000            -2.424871             0.050514
C             2.800000            -2.424871             0.083304
C             3.500000            -1.212436             0.034565
H             3.350000             0.952628             0.025787
C             4.900000            -1.212436             0.038293
C             3.500000            -3.637307             0.039068
C             4.900000            -3.637307             0.023597
C             5.600000            -2.424871             0.098329
H             5.450000            -0.259808             0.070755
C             7.000000            -2.424871             0.030466
B             5.600000            -4.849742             0.018865
C             7.000000            -4.849742             0.039594
C             7.700000            -3.637307             0.078527
H             7.550000            -1.472243             0.022743
C             9.100000            -3.637307             0.067314
C             7.700000            -6.062178             0.039716
C             9.100000            -6.062178             0.064830
C             9.800000            -4.849742             0.006353
H             9.650000            -2.684679             0.039938
C            11.200000            -4.849742             0.089157
C             9.800000            -7.274613             0.087081
C            11.200000            -7.274613             0.040086
C            11.900000            -6.062178             0.035567
H            11.750000            -3.897114             0.076822
H            11.750000            -8.227241             0.077381
H            13.000000            -6.062178             0.053547
C            -2.800000             0.000000             0.007283
C            -3.500000            -1.212436             0.025107
C            -2.800000            -2.424871             0.066154
C            -1.400000            -2.424871             0.047327
H            -3.350000             0.952628             0.088176
C            -0.700000            -3.637307             0.071887
C             0.700000            -3.637307             0.095188
C             1.400000            -4.849742             0.098216
C             2.800000            -4.849742             0.018866
C             3.500000            -6.062178             0.018009
N             4.900000            -6.062178             0.036018
C             5.600000            -7.274613             0.059024
C             7.000000            -7.274613             0.092469
C             7.700000            -8.487049             0.000275
C             9.100000            -8.487049             0.092487
H             9.650000            -9.439677             0.017566
C            -4.900000            -1.212436             0.003181
C            -5.600000            -2.424871             0.045795
C            -4.900000            -3.637307             0.093128
C            -3.500000            -3.637307             0.017369
H            -5.450000            -0.259808             0.034182
C            -2.800000            -4.849742             0.046516
C            -1.400000            -4.849742             0.083182
C            -0.700000            -6.062178             0.016232
C             0.700000            -6.062178             0.095001
C             1.400000            -7.274613             0.030652
C             2.800000            -7.274613             0.062342
C             3.500000            -8.487049             0.023250
C             4.900000            -8.487049             0.007319
C             5.600000            -9.699485             0.093391
C             7.000000            -9.699485             0.027435
H             7.550000           -10.652112             0.011707
C            -7.000000            -2.424871             0.028537
C            -7.700000            -3.637307             0.002042
C            -7.000000            -4.849742             0.053091
C            -5.600000            -4.849742             0.024842
H            -7.550000            -1.472243             0.098155
C            -4.900000            -6.062178             0.021300
C            -3.500000            -6.062178             0.024794
C            -2.800000            -7.274613             0.027619
C            -1.400000            -7.274613             0.078309
C            -0.700000            -8.487049             0.041055
C             0.700000            -8.487049             0.051187
C             1.400000            -9.699485             0.050658
C             2.800000            -9.699485             0.006608
C             3.500000           -10.911920             0.075650
C             4.900000           -10.911920             0.054831
H             5.450000           -11.864548             0.093525
C            -9.100000            -3.637307             0.070810
C            -9.800000            -4.849742             0.005493
C            -9.100000            -6.062178             0.073667
C            -7.700000            -6.062178             0.003085
H            -9.650000            -2.684679             0.026734
H           -10.900000            -4.849742             0.071974
H            -9.650000            -7.014806             0.013981
C            -7.000000            -7.274613             0.097674
C            -5.600000            -7.274613             0.072973
H            -7.550000            -8.227241             0.074205
C            -4.900000            -8.487049             0.053804
C            -3.500000            -8.487049             0.078962
H            -5.450000            -9.439677             0.090868
C            -2.800000            -9.699485             0.097642
C            -1.400000            -9.699485             0.062402
H            -3.350000           -10.652112             0.068158
C            -0.700000           -10.911920             0.032301
C             0.700000           -10.911920             0.045479
H            -1.250000           -11.864548             0.079763
C             1.400000           -12.124356             0.078354
C             2.800000           -12.124356             0.058841
H             0.850000           -13.076984             0.080292
H             3.350000           -13.076984             0.087965
