106
isomero_24_35
C             0.700000             1.212436             0.066366
C            -0.700000             1.212436             0.036407
C            -1.400000             0.000000             0.099651
C            -0.700000            -1.212436             0.037316
C             0.700000            -1.212436             0.035999
C             1.400000            -0.000000             0.068857
H             1.250000             2.165064             0.038716
H            -1.250000             2.165064             0.018173
C             2.800000             0.000000             0.091422
C             1.400000            -2.424871             0.086377
C             2.800000            -2.424871             0.093784
C             3.500000            -1.212436             0.062154
H             3.350000             0.952628             0.025774
C             4.900000            -1.212436             0.002200
B             3.500000            -3.637307             0.037511
C             4.900000            -3.637307             0.072243
C             5.600000            -2.424871             0.073424
H             5.450000            -0.259808             0.018162
C             7.000000            -2.424871             0.009861
C             5.600000            -4.849742             0.016801
C             7.000000            -4.849742             0.051060
C             7.700000            -3.637307             0.051222
H             7.550000            -1.472243             0.061007
C             9.100000            -3.637307             0.042968
C             7.700000            -6.062178             0.081429
C             9.100000            -6.062178             0.099714
C             9.800000            -4.849742             0.047360
H             9.650000            -2.684679             0.029908
C            11.200000            -4.849742             0.003211
C             9.800000            -7.274613             0.074244
C            11.200000            -7.274613             0.003438
C            11.900000            -6.062178             0.016040
H            11.750000            -3.897114             0.001646
H            11.750000            -8.227241             0.031218
H            13.000000            -6.062178             0.067574
C            -2.800000             0.000000             0.030938
C            -3.500000            -1.212436             0.063383
C            -2.800000            -2.424871             0.024286
C            -1.400000            -2.424871             0.047149
H            -3.350000             0.952628             0.062485
C            -0.700000            -3.637307             0.070382
C             0.700000            -3.637307             0.091151
C             1.400000            -4.849742             0.036895
N             2.800000            -4.849742             0.014228
C             3.500000            -6.062178             0.031213
C             4.900000            -6.062178             0.095554
C             5.600000            -7.274613             0.096903
C             7.000000            -7.274613             0.005393
C             7.700000            -8.487049             0.089627
C             9.100000            -8.487049             0.022852
H             9.650000            -9.439677             0.065189
C            -4.900000            -1.212436             0.070799
C            -5.600000            -2.424871             0.040815
C            -4.900000            -3.637307             0.020884
C            -3.500000            -3.637307             0.085335
H            -5.450000            -0.259808             0.078837
C            -2.800000            -4.849742             0.022723
C            -1.400000            -4.849742             0.027212
C            -0.700000            -6.062178             0.091321
C             0.700000            -6.062178             0.005894
C             1.400000            -7.274613             0.079844
C             2.800000            -7.274613             0.083546
C             3.500000            -8.487049             0.034722
C             4.900000            -8.487049             0.014423
C             5.600000            -9.699485             0.007700
C             7.000000            -9.699485             0.079977
H             7.550000           -10.652112             0.099284
C            -7.000000            -2.424871             0.022967
C            -7.700000            -3.637307             0.071032
C            -7.000000            -4.849742             0.070778
C            -5.600000            -4.849742             0.033520
H            -7.550000            -1.472243             0.084404
C            -4.900000            -6.062178             0.000510
C            -3.500000            -6.062178             0.054910
C            -2.800000            -7.274613             0.008210
C            -1.400000            -7.274613             0.021485
C            -0.700000            -8.487049             0.090861
C             0.700000            -8.487049             0.091018
C             1.400000            -9.699485             0.005249
C             2.800000            -9.699485             0.028643
C             3.500000           -10.911920             0.036088
C             4.900000           -10.911920             0.098566
H             5.450000           -11.864548             0.077617
C            -9.100000            -3.637307             0.040861
C            -9.800000            -4.849742             0.036048
C            -9.100000            -6.062178             0.013018
C            -7.700000            -6.062178             0.067814
H            -9.650000            -2.684679             0.063657
H           -10.900000            -4.849742             0.087146
H            -9.650000            -7.014806             0.024594
C            -7.000000            -7.274613             0.029991
C            -5.600000            -7.274613             0.048374
H            -7.550000            -8.227241             0.004893
C            -4.900000            -8.487049             0.085454
C            -3.500000            -8.487049             0.044802
H            -5.450000            -9.439677             0.002868
C            -2.800000            -9.699485             0.011355
C            -1.400000            -9.699485             0.087659
H            -3.350000           -10.652112             0.093748
C            -0.700000           -10.911920             0.012544
C             0.700000           -10.911920             0.057597
H            -1.250000           -11.864548             0.029023
C             1.400000           -12.124356             0.008598
C             2.800000           -12.124356             0.096665
H             0.850000           -13.076984             0.074624
H             3.350000           -13.076984             0.013278
