36
isomero_7_6
C             0.700000             1.212436             0.005145
C            -0.700000             1.212436             0.030435
C            -1.400000             0.000000             0.058019
C            -0.700000            -1.212436             0.053096
C             0.700000            -1.212436             0.090121
C             1.400000            -0.000000             0.054055
H             1.250000             2.165064             0.043198
H            -1.250000             2.165064             0.054267
H            -2.500000             0.000000             0.071241
H            -1.250000            -2.165064             0.001667
C             2.800000             0.000000             0.080092
C             1.400000            -2.424871             0.014251
C             2.800000            -2.424871             0.047847
B             3.500000            -1.212436             0.025684
H             3.350000             0.952628             0.036909
H             0.850000            -3.377499             0.066176
N             4.900000            -1.212436             0.016961
C             3.500000            -3.637307             0.027878
C             4.900000            -3.637307             0.019822
C             5.600000            -2.424871             0.019507
H             5.450000            -0.259808             0.032684
H             2.950000            -4.589935             0.088034
C             7.000000            -2.424871             0.047110
C             5.600000            -4.849742             0.040397
C             7.000000            -4.849742             0.017923
C             7.700000            -3.637307             0.096892
H             7.550000            -1.472243             0.040746
H             5.050000            -5.802370             0.084449
C             9.100000            -3.637307             0.061533
C             7.700000            -6.062178             0.037661
C             9.100000            -6.062178             0.087718
C             9.800000            -4.849742             0.078485
H             9.650000            -2.684679             0.046495
H             7.150000            -7.014806             0.081398
H             9.650000            -7.014806             0.089844
H            10.900000            -4.849742             0.042924
