36
isomero_1_4
B             0.700000             1.212436             0.038639
C            -0.700000             1.212436             0.077555
C            -1.400000             0.000000             0.073427
C            -0.700000            -1.212436             0.043028
C             0.700000            -1.212436             0.069375
N             1.400000            -0.000000             0.094521
H             1.250000             2.165064             0.078423
H            -1.250000             2.165064             0.070557
H            -2.500000             0.000000             0.010933
H            -1.250000            -2.165064             0.038993
C             2.800000             0.000000             0.059090
C             1.400000            -2.424871             0.045938
C             2.800000            -2.424871             0.005034
C             3.500000            -1.212436             0.022869
H             3.350000             0.952628             0.083419
H             0.850000            -3.377499             0.001564
C             4.900000            -1.212436             0.086371
C             3.500000            -3.637307             0.007807
C             4.900000            -3.637307             0.066904
C             5.600000            -2.424871             0.050021
H             5.450000            -0.259808             0.021799
H             2.950000            -4.589935             0.057162
C             7.000000            -2.424871             0.012219
C             5.600000            -4.849742             0.067117
C             7.000000            -4.849742             0.059959
C             7.700000            -3.637307             0.005598
H             7.550000            -1.472243             0.005634
H             5.050000            -5.802370             0.015250
C             9.100000            -3.637307             0.001962
C             7.700000            -6.062178             0.043518
C             9.100000            -6.062178             0.083222
C             9.800000            -4.849742             0.061739
H             9.650000            -2.684679             0.052013
H             7.150000            -7.014806             0.086387
H             9.650000            -7.014806             0.009770
H            10.900000            -4.849742             0.090805
