36
isomero_3_4
C             0.700000             1.212436             0.006836
C            -0.700000             1.212436             0.043633
C            -1.400000             0.000000             0.017385
C            -0.700000            -1.212436             0.002611
C             0.700000            -1.212436             0.095468
N             1.400000            -0.000000             0.043060
H             1.250000             2.165064             0.096156
H            -1.250000             2.165064             0.076241
H            -2.500000             0.000000             0.000735
H            -1.250000            -2.165064             0.068004
B             2.800000             0.000000             0.070595
C             1.400000            -2.424871             0.064513
C             2.800000            -2.424871             0.055231
C             3.500000            -1.212436             0.021811
H             3.350000             0.952628             0.077237
H             0.850000            -3.377499             0.022803
C             4.900000            -1.212436             0.037086
C             3.500000            -3.637307             0.089093
C             4.900000            -3.637307             0.085638
C             5.600000            -2.424871             0.040243
H             5.450000            -0.259808             0.031802
H             2.950000            -4.589935             0.060864
C             7.000000            -2.424871             0.091020
C             5.600000            -4.849742             0.090910
C             7.000000            -4.849742             0.059159
C             7.700000            -3.637307             0.033257
H             7.550000            -1.472243             0.085306
H             5.050000            -5.802370             0.044240
C             9.100000            -3.637307             0.090436
C             7.700000            -6.062178             0.003318
C             9.100000            -6.062178             0.053243
C             9.800000            -4.849742             0.071650
H             9.650000            -2.684679             0.017930
H             7.150000            -7.014806             0.033653
H             9.650000            -7.014806             0.018771
H            10.900000            -4.849742             0.032193
