66
isomero_14_8
C             0.700000             1.212436             0.066412
C            -0.700000             1.212436             0.054728
C            -1.400000             0.000000             0.028595
C            -0.700000            -1.212436             0.009731
C             0.700000            -1.212436             0.083122
C             1.400000            -0.000000             0.031502
H             1.250000             2.165064             0.059878
H            -1.250000             2.165064             0.046877
C             2.800000             0.000000             0.065821
C             1.400000            -2.424871             0.026100
B             2.800000            -2.424871             0.028453
N             3.500000            -1.212436             0.069106
H             3.350000             0.952628             0.097348
C             4.900000            -1.212436             0.028256
C             3.500000            -3.637307             0.085399
C             4.900000            -3.637307             0.090133
C             5.600000            -2.424871             0.083775
H             5.450000            -0.259808             0.075228
C             7.000000            -2.424871             0.025913
C             5.600000            -4.849742             0.094714
C             7.000000            -4.849742             0.084713
C             7.700000            -3.637307             0.084237
H             7.550000            -1.472243             0.077716
C             9.100000            -3.637307             0.047376
C             7.700000            -6.062178             0.085117
C             9.100000            -6.062178             0.092918
C             9.800000            -4.849742             0.002424
H             9.650000            -2.684679             0.072909
C            11.200000            -4.849742             0.046632
C             9.800000            -7.274613             0.059119
C            11.200000            -7.274613             0.098450
C            11.900000            -6.062178             0.084701
H            11.750000            -3.897114             0.097670
C            13.300000            -6.062178             0.034486
C            11.900000            -8.487049             0.027736
C            13.300000            -8.487049             0.031641
C            14.000000            -7.274613             0.033649
H            13.850000            -5.109550             0.054810
H            13.850000            -9.439677             0.028521
H            15.100000            -7.274613             0.091586
C            -2.800000             0.000000             0.067068
C            -3.500000            -1.212436             0.078549
C            -2.800000            -2.424871             0.018301
C            -1.400000            -2.424871             0.014089
H            -3.350000             0.952628             0.005574
H            -4.600000            -1.212436             0.061837
H            -3.350000            -3.377499             0.058994
C            -0.700000            -3.637307             0.037504
C             0.700000            -3.637307             0.002262
H            -1.250000            -4.589935             0.015925
C             1.400000            -4.849742             0.050677
C             2.800000            -4.849742             0.078717
H             0.850000            -5.802370             0.076204
C             3.500000            -6.062178             0.093432
C             4.900000            -6.062178             0.079518
H             2.950000            -7.014806             0.045426
C             5.600000            -7.274613             0.034440
C             7.000000            -7.274613             0.013286
H             5.050000            -8.227241             0.056123
C             7.700000            -8.487049             0.020762
C             9.100000            -8.487049             0.011801
H             7.150000            -9.439677             0.076765
C             9.800000            -9.699485             0.045726
C            11.200000            -9.699485             0.072584
H             9.250000           -10.652112             0.010673
H            11.750000           -10.652112             0.043914
