66
isomero_20_13
C             0.700000             1.212436             0.050416
C            -0.700000             1.212436             0.056222
C            -1.400000             0.000000             0.078934
C            -0.700000            -1.212436             0.035093
C             0.700000            -1.212436             0.022018
C             1.400000            -0.000000             0.082283
H             1.250000             2.165064             0.007604
H            -1.250000             2.165064             0.008219
C             2.800000             0.000000             0.030972
C             1.400000            -2.424871             0.085550
C             2.800000            -2.424871             0.047430
C             3.500000            -1.212436             0.032424
H             3.350000             0.952628             0.046004
C             4.900000            -1.212436             0.067417
C             3.500000            -3.637307             0.057406
B             4.900000            -3.637307             0.084283
N             5.600000            -2.424871             0.007582
H             5.450000            -0.259808             0.025985
C             7.000000            -2.424871             0.068756
C             5.600000            -4.849742             0.043250
C             7.000000            -4.849742             0.032373
C             7.700000            -3.637307             0.004607
H             7.550000            -1.472243             0.031035
C             9.100000            -3.637307             0.042662
C             7.700000            -6.062178             0.061557
C             9.100000            -6.062178             0.024301
C             9.800000            -4.849742             0.084472
H             9.650000            -2.684679             0.088280
C            11.200000            -4.849742             0.092826
C             9.800000            -7.274613             0.056263
C            11.200000            -7.274613             0.030299
C            11.900000            -6.062178             0.077015
H            11.750000            -3.897114             0.050722
C            13.300000            -6.062178             0.061259
C            11.900000            -8.487049             0.068658
C            13.300000            -8.487049             0.008391
C            14.000000            -7.274613             0.071411
H            13.850000            -5.109550             0.029838
H            13.850000            -9.439677             0.023319
H            15.100000            -7.274613             0.031744
C            -2.800000             0.000000             0.028202
C            -3.500000            -1.212436             0.025056
C            -2.800000            -2.424871             0.012354
C            -1.400000            -2.424871             0.066814
H            -3.350000             0.952628             0.027839
H            -4.600000            -1.212436             0.024757
H            -3.350000            -3.377499             0.056877
C            -0.700000            -3.637307             0.005135
C             0.700000            -3.637307             0.082317
H            -1.250000            -4.589935             0.003695
C             1.400000            -4.849742             0.026717
C             2.800000            -4.849742             0.030219
H             0.850000            -5.802370             0.066230
C             3.500000            -6.062178             0.062576
C             4.900000            -6.062178             0.071234
H             2.950000            -7.014806             0.027583
C             5.600000            -7.274613             0.099608
C             7.000000            -7.274613             0.030045
H             5.050000            -8.227241             0.050127
C             7.700000            -8.487049             0.013232
C             9.100000            -8.487049             0.089756
H             7.150000            -9.439677             0.023794
C             9.800000            -9.699485             0.006709
C            11.200000            -9.699485             0.036562
H             9.250000           -10.652112             0.098901
H            11.750000           -10.652112             0.021202
