66
isomero_19_12
C             0.700000             1.212436             0.069890
C            -0.700000             1.212436             0.063833
C            -1.400000             0.000000             0.064771
C            -0.700000            -1.212436             0.088260
C             0.700000            -1.212436             0.016407
C             1.400000            -0.000000             0.066667
H             1.250000             2.165064             0.038320
H            -1.250000             2.165064             0.069323
C             2.800000             0.000000             0.030417
C             1.400000            -2.424871             0.064963
C             2.800000            -2.424871             0.035954
C             3.500000            -1.212436             0.091287
H             3.350000             0.952628             0.038877
C             4.900000            -1.212436             0.067802
C             3.500000            -3.637307             0.075266
C             4.900000            -3.637307             0.019939
C             5.600000            -2.424871             0.067832
H             5.450000            -0.259808             0.079100
N             7.000000            -2.424871             0.072621
C             5.600000            -4.849742             0.017520
C             7.000000            -4.849742             0.010322
B             7.700000            -3.637307             0.081755
H             7.550000            -1.472243             0.098010
C             9.100000            -3.637307             0.075168
C             7.700000            -6.062178             0.090974
C             9.100000            -6.062178             0.060851
C             9.800000            -4.849742             0.045920
H             9.650000            -2.684679             0.004591
C            11.200000            -4.849742             0.059967
C             9.800000            -7.274613             0.078142
C            11.200000            -7.274613             0.081805
C            11.900000            -6.062178             0.022308
H            11.750000            -3.897114             0.073290
C            13.300000            -6.062178             0.067756
C            11.900000            -8.487049             0.097210
C            13.300000            -8.487049             0.041160
C            14.000000            -7.274613             0.005123
H            13.850000            -5.109550             0.031527
H            13.850000            -9.439677             0.031476
H            15.100000            -7.274613             0.049274
C            -2.800000             0.000000             0.005563
C            -3.500000            -1.212436             0.009498
C            -2.800000            -2.424871             0.023908
C            -1.400000            -2.424871             0.078244
H            -3.350000             0.952628             0.086883
H            -4.600000            -1.212436             0.062398
H            -3.350000            -3.377499             0.033252
C            -0.700000            -3.637307             0.027125
C             0.700000            -3.637307             0.003197
H            -1.250000            -4.589935             0.086933
C             1.400000            -4.849742             0.024765
C             2.800000            -4.849742             0.098542
H             0.850000            -5.802370             0.012759
C             3.500000            -6.062178             0.053295
C             4.900000            -6.062178             0.037860
H             2.950000            -7.014806             0.078377
C             5.600000            -7.274613             0.091409
C             7.000000            -7.274613             0.036112
H             5.050000            -8.227241             0.091104
C             7.700000            -8.487049             0.011912
C             9.100000            -8.487049             0.003483
H             7.150000            -9.439677             0.090451
C             9.800000            -9.699485             0.093074
C            11.200000            -9.699485             0.059000
H             9.250000           -10.652112             0.005645
H            11.750000           -10.652112             0.088216
