66
isomero_4_9
C             0.700000             1.212436             0.068115
C            -0.700000             1.212436             0.014483
C            -1.400000             0.000000             0.005783
C            -0.700000            -1.212436             0.013494
N             0.700000            -1.212436             0.001478
B             1.400000            -0.000000             0.018912
H             1.250000             2.165064             0.007086
H            -1.250000             2.165064             0.003786
C             2.800000             0.000000             0.030787
C             1.400000            -2.424871             0.051574
C             2.800000            -2.424871             0.039351
C             3.500000            -1.212436             0.099520
H             3.350000             0.952628             0.043960
C             4.900000            -1.212436             0.015144
C             3.500000            -3.637307             0.077805
C             4.900000            -3.637307             0.074117
C             5.600000            -2.424871             0.008764
H             5.450000            -0.259808             0.047043
C             7.000000            -2.424871             0.029283
C             5.600000            -4.849742             0.040685
C             7.000000            -4.849742             0.043024
C             7.700000            -3.637307             0.087126
H             7.550000            -1.472243             0.070725
C             9.100000            -3.637307             0.001430
C             7.700000            -6.062178             0.002458
C             9.100000            -6.062178             0.023699
C             9.800000            -4.849742             0.059827
H             9.650000            -2.684679             0.092620
C            11.200000            -4.849742             0.033441
C             9.800000            -7.274613             0.044303
C            11.200000            -7.274613             0.009914
C            11.900000            -6.062178             0.071515
H            11.750000            -3.897114             0.072164
C            13.300000            -6.062178             0.078247
C            11.900000            -8.487049             0.094205
C            13.300000            -8.487049             0.004757
C            14.000000            -7.274613             0.080035
H            13.850000            -5.109550             0.046679
H            13.850000            -9.439677             0.027914
H            15.100000            -7.274613             0.004472
C            -2.800000             0.000000             0.078755
C            -3.500000            -1.212436             0.089912
C            -2.800000            -2.424871             0.077568
C            -1.400000            -2.424871             0.083745
H            -3.350000             0.952628             0.034442
H            -4.600000            -1.212436             0.019119
H            -3.350000            -3.377499             0.037844
C            -0.700000            -3.637307             0.025633
C             0.700000            -3.637307             0.002146
H            -1.250000            -4.589935             0.029328
C             1.400000            -4.849742             0.024042
C             2.800000            -4.849742             0.020259
H             0.850000            -5.802370             0.034822
C             3.500000            -6.062178             0.053715
C             4.900000            -6.062178             0.012431
H             2.950000            -7.014806             0.019274
C             5.600000            -7.274613             0.048862
C             7.000000            -7.274613             0.040701
H             5.050000            -8.227241             0.073492
C             7.700000            -8.487049             0.029990
C             9.100000            -8.487049             0.080714
H             7.150000            -9.439677             0.091366
C             9.800000            -9.699485             0.076511
C            11.200000            -9.699485             0.033421
H             9.250000           -10.652112             0.071934
H            11.750000           -10.652112             0.003359
