66
isomero_14_15
C             0.700000             1.212436             0.055739
C            -0.700000             1.212436             0.085558
C            -1.400000             0.000000             0.091193
C            -0.700000            -1.212436             0.035133
C             0.700000            -1.212436             0.037236
C             1.400000            -0.000000             0.010224
H             1.250000             2.165064             0.065759
H            -1.250000             2.165064             0.021881
C             2.800000             0.000000             0.086643
N             1.400000            -2.424871             0.039340
B             2.800000            -2.424871             0.045388
C             3.500000            -1.212436             0.018175
H             3.350000             0.952628             0.006744
C             4.900000            -1.212436             0.078455
C             3.500000            -3.637307             0.080187
C             4.900000            -3.637307             0.046342
C             5.600000            -2.424871             0.085242
H             5.450000            -0.259808             0.062565
C             7.000000            -2.424871             0.018049
C             5.600000            -4.849742             0.003007
C             7.000000            -4.849742             0.012978
C             7.700000            -3.637307             0.031561
H             7.550000            -1.472243             0.073153
C             9.100000            -3.637307             0.077298
C             7.700000            -6.062178             0.014857
C             9.100000            -6.062178             0.079580
C             9.800000            -4.849742             0.016535
H             9.650000            -2.684679             0.071710
C            11.200000            -4.849742             0.007856
C             9.800000            -7.274613             0.039387
C            11.200000            -7.274613             0.081583
C            11.900000            -6.062178             0.052998
H            11.750000            -3.897114             0.094736
C            13.300000            -6.062178             0.031668
C            11.900000            -8.487049             0.057817
C            13.300000            -8.487049             0.019023
C            14.000000            -7.274613             0.039226
H            13.850000            -5.109550             0.099876
H            13.850000            -9.439677             0.034369
H            15.100000            -7.274613             0.090857
C            -2.800000             0.000000             0.069767
C            -3.500000            -1.212436             0.002977
C            -2.800000            -2.424871             0.048128
C            -1.400000            -2.424871             0.067691
H            -3.350000             0.952628             0.040248
H            -4.600000            -1.212436             0.015409
H            -3.350000            -3.377499             0.056117
C            -0.700000            -3.637307             0.094933
C             0.700000            -3.637307             0.095930
H            -1.250000            -4.589935             0.098994
C             1.400000            -4.849742             0.083601
C             2.800000            -4.849742             0.065408
H             0.850000            -5.802370             0.086917
C             3.500000            -6.062178             0.086377
C             4.900000            -6.062178             0.076192
H             2.950000            -7.014806             0.016527
C             5.600000            -7.274613             0.007947
C             7.000000            -7.274613             0.050889
H             5.050000            -8.227241             0.009304
C             7.700000            -8.487049             0.043786
C             9.100000            -8.487049             0.031197
H             7.150000            -9.439677             0.037915
C             9.800000            -9.699485             0.099559
C            11.200000            -9.699485             0.086949
H             9.250000           -10.652112             0.094791
H            11.750000           -10.652112             0.025430
