66
isomero_13_7
C             0.700000             1.212436             0.084594
C            -0.700000             1.212436             0.062675
C            -1.400000             0.000000             0.059986
C            -0.700000            -1.212436             0.021064
C             0.700000            -1.212436             0.025391
C             1.400000            -0.000000             0.065197
H             1.250000             2.165064             0.032892
H            -1.250000             2.165064             0.052317
C             2.800000             0.000000             0.012472
C             1.400000            -2.424871             0.045270
C             2.800000            -2.424871             0.099260
C             3.500000            -1.212436             0.039923
H             3.350000             0.952628             0.006191
N             4.900000            -1.212436             0.029296
C             3.500000            -3.637307             0.055227
C             4.900000            -3.637307             0.074013
B             5.600000            -2.424871             0.031840
H             5.450000            -0.259808             0.049386
C             7.000000            -2.424871             0.062867
C             5.600000            -4.849742             0.075315
C             7.000000            -4.849742             0.069389
C             7.700000            -3.637307             0.013688
H             7.550000            -1.472243             0.090696
C             9.100000            -3.637307             0.037888
C             7.700000            -6.062178             0.052962
C             9.100000            -6.062178             0.098862
C             9.800000            -4.849742             0.095821
H             9.650000            -2.684679             0.081765
C            11.200000            -4.849742             0.042390
C             9.800000            -7.274613             0.081798
C            11.200000            -7.274613             0.044450
C            11.900000            -6.062178             0.038026
H            11.750000            -3.897114             0.070724
C            13.300000            -6.062178             0.023892
C            11.900000            -8.487049             0.017577
C            13.300000            -8.487049             0.023815
C            14.000000            -7.274613             0.028359
H            13.850000            -5.109550             0.004065
H            13.850000            -9.439677             0.055142
H            15.100000            -7.274613             0.094250
C            -2.800000             0.000000             0.078784
C            -3.500000            -1.212436             0.024143
C            -2.800000            -2.424871             0.069598
C            -1.400000            -2.424871             0.001526
H            -3.350000             0.952628             0.076855
H            -4.600000            -1.212436             0.033189
H            -3.350000            -3.377499             0.032233
C            -0.700000            -3.637307             0.076544
C             0.700000            -3.637307             0.038416
H            -1.250000            -4.589935             0.021863
C             1.400000            -4.849742             0.056332
C             2.800000            -4.849742             0.022063
H             0.850000            -5.802370             0.016264
C             3.500000            -6.062178             0.039964
C             4.900000            -6.062178             0.002039
H             2.950000            -7.014806             0.042327
C             5.600000            -7.274613             0.000327
C             7.000000            -7.274613             0.004486
H             5.050000            -8.227241             0.018912
C             7.700000            -8.487049             0.020134
C             9.100000            -8.487049             0.060035
H             7.150000            -9.439677             0.023172
C             9.800000            -9.699485             0.056655
C            11.200000            -9.699485             0.055075
H             9.250000           -10.652112             0.033801
H            11.750000           -10.652112             0.098992
