66
isomero_10_16
C             0.700000             1.212436             0.072844
C            -0.700000             1.212436             0.041530
C            -1.400000             0.000000             0.011864
B            -0.700000            -1.212436             0.059626
C             0.700000            -1.212436             0.000469
C             1.400000            -0.000000             0.093945
H             1.250000             2.165064             0.069141
H            -1.250000             2.165064             0.027180
C             2.800000             0.000000             0.075374
C             1.400000            -2.424871             0.065833
C             2.800000            -2.424871             0.028371
C             3.500000            -1.212436             0.053561
H             3.350000             0.952628             0.006022
C             4.900000            -1.212436             0.067743
C             3.500000            -3.637307             0.092288
C             4.900000            -3.637307             0.046664
C             5.600000            -2.424871             0.036881
H             5.450000            -0.259808             0.091739
C             7.000000            -2.424871             0.001157
C             5.600000            -4.849742             0.092924
C             7.000000            -4.849742             0.069342
C             7.700000            -3.637307             0.082124
H             7.550000            -1.472243             0.085774
C             9.100000            -3.637307             0.011058
C             7.700000            -6.062178             0.070500
C             9.100000            -6.062178             0.055167
C             9.800000            -4.849742             0.052063
H             9.650000            -2.684679             0.031373
C            11.200000            -4.849742             0.016141
C             9.800000            -7.274613             0.031973
C            11.200000            -7.274613             0.067107
C            11.900000            -6.062178             0.052395
H            11.750000            -3.897114             0.060780
C            13.300000            -6.062178             0.076031
C            11.900000            -8.487049             0.016386
C            13.300000            -8.487049             0.049436
C            14.000000            -7.274613             0.076469
H            13.850000            -5.109550             0.030081
H            13.850000            -9.439677             0.083887
H            15.100000            -7.274613             0.067981
C            -2.800000             0.000000             0.032846
C            -3.500000            -1.212436             0.053826
C            -2.800000            -2.424871             0.083782
N            -1.400000            -2.424871             0.024298
H            -3.350000             0.952628             0.001948
H            -4.600000            -1.212436             0.060748
H            -3.350000            -3.377499             0.053879
C            -0.700000            -3.637307             0.022635
C             0.700000            -3.637307             0.091994
H            -1.250000            -4.589935             0.093600
C             1.400000            -4.849742             0.048863
C             2.800000            -4.849742             0.069763
H             0.850000            -5.802370             0.051659
C             3.500000            -6.062178             0.028523
C             4.900000            -6.062178             0.000945
H             2.950000            -7.014806             0.029295
C             5.600000            -7.274613             0.066648
C             7.000000            -7.274613             0.015509
H             5.050000            -8.227241             0.022558
C             7.700000            -8.487049             0.087762
C             9.100000            -8.487049             0.060573
H             7.150000            -9.439677             0.064681
C             9.800000            -9.699485             0.006918
C            11.200000            -9.699485             0.021855
H             9.250000           -10.652112             0.077999
H            11.750000           -10.652112             0.062908
