66
isomero_18_19
C             0.700000             1.212436             0.092950
C            -0.700000             1.212436             0.041857
C            -1.400000             0.000000             0.052670
C            -0.700000            -1.212436             0.069094
C             0.700000            -1.212436             0.005466
C             1.400000            -0.000000             0.034041
H             1.250000             2.165064             0.079279
H            -1.250000             2.165064             0.000655
C             2.800000             0.000000             0.005420
C             1.400000            -2.424871             0.027407
C             2.800000            -2.424871             0.035748
C             3.500000            -1.212436             0.078106
H             3.350000             0.952628             0.018884
C             4.900000            -1.212436             0.040648
C             3.500000            -3.637307             0.069395
C             4.900000            -3.637307             0.082948
C             5.600000            -2.424871             0.054618
H             5.450000            -0.259808             0.091234
C             7.000000            -2.424871             0.091763
C             5.600000            -4.849742             0.061854
C             7.000000            -4.849742             0.091047
N             7.700000            -3.637307             0.089386
H             7.550000            -1.472243             0.034529
B             9.100000            -3.637307             0.099639
C             7.700000            -6.062178             0.089026
C             9.100000            -6.062178             0.036382
C             9.800000            -4.849742             0.078290
H             9.650000            -2.684679             0.032832
C            11.200000            -4.849742             0.015671
C             9.800000            -7.274613             0.073948
C            11.200000            -7.274613             0.063174
C            11.900000            -6.062178             0.059990
H            11.750000            -3.897114             0.024056
C            13.300000            -6.062178             0.028235
C            11.900000            -8.487049             0.079874
C            13.300000            -8.487049             0.058694
C            14.000000            -7.274613             0.030175
H            13.850000            -5.109550             0.029611
H            13.850000            -9.439677             0.022521
H            15.100000            -7.274613             0.050544
C            -2.800000             0.000000             0.056504
C            -3.500000            -1.212436             0.006890
C            -2.800000            -2.424871             0.016390
C            -1.400000            -2.424871             0.051052
H            -3.350000             0.952628             0.054154
H            -4.600000            -1.212436             0.051004
H            -3.350000            -3.377499             0.012192
C            -0.700000            -3.637307             0.015575
C             0.700000            -3.637307             0.040915
H            -1.250000            -4.589935             0.069365
C             1.400000            -4.849742             0.078077
C             2.800000            -4.849742             0.063636
H             0.850000            -5.802370             0.058181
C             3.500000            -6.062178             0.097473
C             4.900000            -6.062178             0.052964
H             2.950000            -7.014806             0.028837
C             5.600000            -7.274613             0.019621
C             7.000000            -7.274613             0.021537
H             5.050000            -8.227241             0.043766
C             7.700000            -8.487049             0.056695
C             9.100000            -8.487049             0.091558
H             7.150000            -9.439677             0.031610
C             9.800000            -9.699485             0.028102
C            11.200000            -9.699485             0.061890
H             9.250000           -10.652112             0.022044
H            11.750000           -10.652112             0.017202
