66
isomero_8_7
C             0.700000             1.212436             0.098257
C            -0.700000             1.212436             0.008592
C            -1.400000             0.000000             0.041268
C            -0.700000            -1.212436             0.098528
C             0.700000            -1.212436             0.048526
C             1.400000            -0.000000             0.061187
H             1.250000             2.165064             0.001122
H            -1.250000             2.165064             0.076855
C             2.800000             0.000000             0.074156
C             1.400000            -2.424871             0.021735
C             2.800000            -2.424871             0.039732
B             3.500000            -1.212436             0.026256
H             3.350000             0.952628             0.007864
N             4.900000            -1.212436             0.022012
C             3.500000            -3.637307             0.048499
C             4.900000            -3.637307             0.051530
C             5.600000            -2.424871             0.083901
H             5.450000            -0.259808             0.041315
C             7.000000            -2.424871             0.040218
C             5.600000            -4.849742             0.095269
C             7.000000            -4.849742             0.033510
C             7.700000            -3.637307             0.013375
H             7.550000            -1.472243             0.069544
C             9.100000            -3.637307             0.092277
C             7.700000            -6.062178             0.048752
C             9.100000            -6.062178             0.050569
C             9.800000            -4.849742             0.000463
H             9.650000            -2.684679             0.018847
C            11.200000            -4.849742             0.077964
C             9.800000            -7.274613             0.061083
C            11.200000            -7.274613             0.079246
C            11.900000            -6.062178             0.083790
H            11.750000            -3.897114             0.068736
C            13.300000            -6.062178             0.008143
C            11.900000            -8.487049             0.080614
C            13.300000            -8.487049             0.013478
C            14.000000            -7.274613             0.056991
H            13.850000            -5.109550             0.057469
H            13.850000            -9.439677             0.001610
H            15.100000            -7.274613             0.093483
C            -2.800000             0.000000             0.061478
C            -3.500000            -1.212436             0.066857
C            -2.800000            -2.424871             0.042177
C            -1.400000            -2.424871             0.070277
H            -3.350000             0.952628             0.047070
H            -4.600000            -1.212436             0.040889
H            -3.350000            -3.377499             0.098864
C            -0.700000            -3.637307             0.048525
C             0.700000            -3.637307             0.011726
H            -1.250000            -4.589935             0.085809
C             1.400000            -4.849742             0.034198
C             2.800000            -4.849742             0.031638
H             0.850000            -5.802370             0.037753
C             3.500000            -6.062178             0.086988
C             4.900000            -6.062178             0.053143
H             2.950000            -7.014806             0.002516
C             5.600000            -7.274613             0.024836
C             7.000000            -7.274613             0.072368
H             5.050000            -8.227241             0.043238
C             7.700000            -8.487049             0.026145
C             9.100000            -8.487049             0.018941
H             7.150000            -9.439677             0.021448
C             9.800000            -9.699485             0.049489
C            11.200000            -9.699485             0.003300
H             9.250000           -10.652112             0.037262
H            11.750000           -10.652112             0.035668
