66
isomero_5_2
C             0.700000             1.212436             0.061562
N            -0.700000             1.212436             0.011218
B            -1.400000             0.000000             0.005060
C            -0.700000            -1.212436             0.005521
C             0.700000            -1.212436             0.002622
C             1.400000            -0.000000             0.095544
H             1.250000             2.165064             0.052521
H            -1.250000             2.165064             0.075625
C             2.800000             0.000000             0.058982
C             1.400000            -2.424871             0.073891
C             2.800000            -2.424871             0.031942
C             3.500000            -1.212436             0.084813
H             3.350000             0.952628             0.049365
C             4.900000            -1.212436             0.011484
C             3.500000            -3.637307             0.081227
C             4.900000            -3.637307             0.066683
C             5.600000            -2.424871             0.038178
H             5.450000            -0.259808             0.071881
C             7.000000            -2.424871             0.041863
C             5.600000            -4.849742             0.005593
C             7.000000            -4.849742             0.058500
C             7.700000            -3.637307             0.029883
H             7.550000            -1.472243             0.040956
C             9.100000            -3.637307             0.058609
C             7.700000            -6.062178             0.031562
C             9.100000            -6.062178             0.014736
C             9.800000            -4.849742             0.099153
H             9.650000            -2.684679             0.010749
C            11.200000            -4.849742             0.033426
C             9.800000            -7.274613             0.003796
C            11.200000            -7.274613             0.092241
C            11.900000            -6.062178             0.037314
H            11.750000            -3.897114             0.098916
C            13.300000            -6.062178             0.054346
C            11.900000            -8.487049             0.056332
C            13.300000            -8.487049             0.018790
C            14.000000            -7.274613             0.021550
H            13.850000            -5.109550             0.048531
H            13.850000            -9.439677             0.021950
H            15.100000            -7.274613             0.093687
C            -2.800000             0.000000             0.027762
C            -3.500000            -1.212436             0.095310
C            -2.800000            -2.424871             0.081493
C            -1.400000            -2.424871             0.034960
H            -3.350000             0.952628             0.002161
H            -4.600000            -1.212436             0.034101
H            -3.350000            -3.377499             0.038440
C            -0.700000            -3.637307             0.009329
C             0.700000            -3.637307             0.096925
H            -1.250000            -4.589935             0.019004
C             1.400000            -4.849742             0.016462
C             2.800000            -4.849742             0.050703
H             0.850000            -5.802370             0.050824
C             3.500000            -6.062178             0.005148
C             4.900000            -6.062178             0.036701
H             2.950000            -7.014806             0.058480
C             5.600000            -7.274613             0.099475
C             7.000000            -7.274613             0.043513
H             5.050000            -8.227241             0.069600
C             7.700000            -8.487049             0.001648
C             9.100000            -8.487049             0.015254
H             7.150000            -9.439677             0.089954
C             9.800000            -9.699485             0.004638
C            11.200000            -9.699485             0.002933
H             9.250000           -10.652112             0.057444
H            11.750000           -10.652112             0.034040
