66
isomero_10_9
C             0.700000             1.212436             0.011039
C            -0.700000             1.212436             0.042824
C            -1.400000             0.000000             0.071899
B            -0.700000            -1.212436             0.076762
N             0.700000            -1.212436             0.092719
C             1.400000            -0.000000             0.075695
H             1.250000             2.165064             0.033250
H            -1.250000             2.165064             0.088056
C             2.800000             0.000000             0.052561
C             1.400000            -2.424871             0.026734
C             2.800000            -2.424871             0.016822
C             3.500000            -1.212436             0.004501
H             3.350000             0.952628             0.017077
C             4.900000            -1.212436             0.092578
C             3.500000            -3.637307             0.010862
C             4.900000            -3.637307             0.083415
C             5.600000            -2.424871             0.015182
H             5.450000            -0.259808             0.085588
C             7.000000            -2.424871             0.059857
C             5.600000            -4.849742             0.019777
C             7.000000            -4.849742             0.079753
C             7.700000            -3.637307             0.078739
H             7.550000            -1.472243             0.009559
C             9.100000            -3.637307             0.017145
C             7.700000            -6.062178             0.060281
C             9.100000            -6.062178             0.032510
C             9.800000            -4.849742             0.026728
H             9.650000            -2.684679             0.078930
C            11.200000            -4.849742             0.061661
C             9.800000            -7.274613             0.068646
C            11.200000            -7.274613             0.069743
C            11.900000            -6.062178             0.093202
H            11.750000            -3.897114             0.012019
C            13.300000            -6.062178             0.060689
C            11.900000            -8.487049             0.048987
C            13.300000            -8.487049             0.052970
C            14.000000            -7.274613             0.022187
H            13.850000            -5.109550             0.074818
H            13.850000            -9.439677             0.025815
H            15.100000            -7.274613             0.019911
C            -2.800000             0.000000             0.087152
C            -3.500000            -1.212436             0.002719
C            -2.800000            -2.424871             0.003634
C            -1.400000            -2.424871             0.043799
H            -3.350000             0.952628             0.006569
H            -4.600000            -1.212436             0.097939
H            -3.350000            -3.377499             0.062890
C            -0.700000            -3.637307             0.065633
C             0.700000            -3.637307             0.032791
H            -1.250000            -4.589935             0.047550
C             1.400000            -4.849742             0.001624
C             2.800000            -4.849742             0.020003
H             0.850000            -5.802370             0.085849
C             3.500000            -6.062178             0.006754
C             4.900000            -6.062178             0.031075
H             2.950000            -7.014806             0.082662
C             5.600000            -7.274613             0.061187
C             7.000000            -7.274613             0.091460
H             5.050000            -8.227241             0.088411
C             7.700000            -8.487049             0.024531
C             9.100000            -8.487049             0.095820
H             7.150000            -9.439677             0.045230
C             9.800000            -9.699485             0.088856
C            11.200000            -9.699485             0.046485
H             9.250000           -10.652112             0.058522
H            11.750000           -10.652112             0.001168
