66
isomero_30_31
C             0.700000             1.212436             0.087594
C            -0.700000             1.212436             0.047332
C            -1.400000             0.000000             0.075221
C            -0.700000            -1.212436             0.018105
C             0.700000            -1.212436             0.002134
C             1.400000            -0.000000             0.012927
H             1.250000             2.165064             0.086005
H            -1.250000             2.165064             0.079671
C             2.800000             0.000000             0.018759
C             1.400000            -2.424871             0.017122
C             2.800000            -2.424871             0.067557
C             3.500000            -1.212436             0.039989
H             3.350000             0.952628             0.093553
C             4.900000            -1.212436             0.047624
C             3.500000            -3.637307             0.040224
C             4.900000            -3.637307             0.019002
C             5.600000            -2.424871             0.033707
H             5.450000            -0.259808             0.044098
C             7.000000            -2.424871             0.013798
C             5.600000            -4.849742             0.098034
C             7.000000            -4.849742             0.043965
C             7.700000            -3.637307             0.080384
H             7.550000            -1.472243             0.081767
C             9.100000            -3.637307             0.023153
C             7.700000            -6.062178             0.064126
C             9.100000            -6.062178             0.025781
C             9.800000            -4.849742             0.012411
H             9.650000            -2.684679             0.040706
C            11.200000            -4.849742             0.006769
C             9.800000            -7.274613             0.010976
C            11.200000            -7.274613             0.052956
N            11.900000            -6.062178             0.021150
H            11.750000            -3.897114             0.002597
B            13.300000            -6.062178             0.099412
C            11.900000            -8.487049             0.074464
C            13.300000            -8.487049             0.098224
C            14.000000            -7.274613             0.095138
H            13.850000            -5.109550             0.047161
H            13.850000            -9.439677             0.098754
H            15.100000            -7.274613             0.085292
C            -2.800000             0.000000             0.030908
C            -3.500000            -1.212436             0.095174
C            -2.800000            -2.424871             0.011365
C            -1.400000            -2.424871             0.011727
H            -3.350000             0.952628             0.000070
H            -4.600000            -1.212436             0.030316
H            -3.350000            -3.377499             0.036918
C            -0.700000            -3.637307             0.012034
C             0.700000            -3.637307             0.071191
H            -1.250000            -4.589935             0.095751
C             1.400000            -4.849742             0.032229
C             2.800000            -4.849742             0.078898
H             0.850000            -5.802370             0.067149
C             3.500000            -6.062178             0.010961
C             4.900000            -6.062178             0.072396
H             2.950000            -7.014806             0.088260
C             5.600000            -7.274613             0.000049
C             7.000000            -7.274613             0.010194
H             5.050000            -8.227241             0.037038
C             7.700000            -8.487049             0.091469
C             9.100000            -8.487049             0.099899
H             7.150000            -9.439677             0.017049
C             9.800000            -9.699485             0.017262
C            11.200000            -9.699485             0.010307
H             9.250000           -10.652112             0.060615
H            11.750000           -10.652112             0.041189
