66
isomero_7_13
C             0.700000             1.212436             0.001958
C            -0.700000             1.212436             0.075517
C            -1.400000             0.000000             0.091180
C            -0.700000            -1.212436             0.034775
C             0.700000            -1.212436             0.007129
C             1.400000            -0.000000             0.085509
H             1.250000             2.165064             0.009435
H            -1.250000             2.165064             0.054957
C             2.800000             0.000000             0.091553
C             1.400000            -2.424871             0.052201
C             2.800000            -2.424871             0.005197
C             3.500000            -1.212436             0.044091
H             3.350000             0.952628             0.069119
B             4.900000            -1.212436             0.026138
C             3.500000            -3.637307             0.089591
C             4.900000            -3.637307             0.045971
N             5.600000            -2.424871             0.023202
H             5.450000            -0.259808             0.019594
C             7.000000            -2.424871             0.084969
C             5.600000            -4.849742             0.074161
C             7.000000            -4.849742             0.066222
C             7.700000            -3.637307             0.010709
H             7.550000            -1.472243             0.083617
C             9.100000            -3.637307             0.045492
C             7.700000            -6.062178             0.065063
C             9.100000            -6.062178             0.090442
C             9.800000            -4.849742             0.011071
H             9.650000            -2.684679             0.060383
C            11.200000            -4.849742             0.001638
C             9.800000            -7.274613             0.009121
C            11.200000            -7.274613             0.090567
C            11.900000            -6.062178             0.054762
H            11.750000            -3.897114             0.064421
C            13.300000            -6.062178             0.023588
C            11.900000            -8.487049             0.062057
C            13.300000            -8.487049             0.007898
C            14.000000            -7.274613             0.064575
H            13.850000            -5.109550             0.017630
H            13.850000            -9.439677             0.061892
H            15.100000            -7.274613             0.097032
C            -2.800000             0.000000             0.066919
C            -3.500000            -1.212436             0.033181
C            -2.800000            -2.424871             0.045789
C            -1.400000            -2.424871             0.002495
H            -3.350000             0.952628             0.052310
H            -4.600000            -1.212436             0.098919
H            -3.350000            -3.377499             0.072336
C            -0.700000            -3.637307             0.039694
C             0.700000            -3.637307             0.059073
H            -1.250000            -4.589935             0.057318
C             1.400000            -4.849742             0.050767
C             2.800000            -4.849742             0.014555
H             0.850000            -5.802370             0.029095
C             3.500000            -6.062178             0.050114
C             4.900000            -6.062178             0.014187
H             2.950000            -7.014806             0.040638
C             5.600000            -7.274613             0.059310
C             7.000000            -7.274613             0.080938
H             5.050000            -8.227241             0.047060
C             7.700000            -8.487049             0.067412
C             9.100000            -8.487049             0.075718
H             7.150000            -9.439677             0.018210
C             9.800000            -9.699485             0.061964
C            11.200000            -9.699485             0.076993
H             9.250000           -10.652112             0.042109
H            11.750000           -10.652112             0.043899
