66
isomero_2_1
N             0.700000             1.212436             0.057521
B            -0.700000             1.212436             0.076652
C            -1.400000             0.000000             0.074677
C            -0.700000            -1.212436             0.069533
C             0.700000            -1.212436             0.067732
C             1.400000            -0.000000             0.028240
H             1.250000             2.165064             0.058187
H            -1.250000             2.165064             0.061887
C             2.800000             0.000000             0.081424
C             1.400000            -2.424871             0.001599
C             2.800000            -2.424871             0.021435
C             3.500000            -1.212436             0.098787
H             3.350000             0.952628             0.081734
C             4.900000            -1.212436             0.063208
C             3.500000            -3.637307             0.068215
C             4.900000            -3.637307             0.080822
C             5.600000            -2.424871             0.027966
H             5.450000            -0.259808             0.066497
C             7.000000            -2.424871             0.002932
C             5.600000            -4.849742             0.054438
C             7.000000            -4.849742             0.052897
C             7.700000            -3.637307             0.087316
H             7.550000            -1.472243             0.018761
C             9.100000            -3.637307             0.093146
C             7.700000            -6.062178             0.097635
C             9.100000            -6.062178             0.033120
C             9.800000            -4.849742             0.062371
H             9.650000            -2.684679             0.052706
C            11.200000            -4.849742             0.045908
C             9.800000            -7.274613             0.035857
C            11.200000            -7.274613             0.033427
C            11.900000            -6.062178             0.008320
H            11.750000            -3.897114             0.039040
C            13.300000            -6.062178             0.023934
C            11.900000            -8.487049             0.048627
C            13.300000            -8.487049             0.070009
C            14.000000            -7.274613             0.013727
H            13.850000            -5.109550             0.082647
H            13.850000            -9.439677             0.093005
H            15.100000            -7.274613             0.082873
C            -2.800000             0.000000             0.048495
C            -3.500000            -1.212436             0.065977
C            -2.800000            -2.424871             0.045640
C            -1.400000            -2.424871             0.041846
H            -3.350000             0.952628             0.003430
H            -4.600000            -1.212436             0.092685
H            -3.350000            -3.377499             0.004338
C            -0.700000            -3.637307             0.047606
C             0.700000            -3.637307             0.038575
H            -1.250000            -4.589935             0.053406
C             1.400000            -4.849742             0.099817
C             2.800000            -4.849742             0.090247
H             0.850000            -5.802370             0.001476
C             3.500000            -6.062178             0.078051
C             4.900000            -6.062178             0.048529
H             2.950000            -7.014806             0.039022
C             5.600000            -7.274613             0.082309
C             7.000000            -7.274613             0.087442
H             5.050000            -8.227241             0.099836
C             7.700000            -8.487049             0.019566
C             9.100000            -8.487049             0.086997
H             7.150000            -9.439677             0.030749
C             9.800000            -9.699485             0.041124
C            11.200000            -9.699485             0.081634
H             9.250000           -10.652112             0.036825
H            11.750000           -10.652112             0.042622
