66
isomero_26_19
C             0.700000             1.212436             0.049432
C            -0.700000             1.212436             0.084869
C            -1.400000             0.000000             0.067779
C            -0.700000            -1.212436             0.044593
C             0.700000            -1.212436             0.049708
C             1.400000            -0.000000             0.015613
H             1.250000             2.165064             0.069787
H            -1.250000             2.165064             0.020469
C             2.800000             0.000000             0.067737
C             1.400000            -2.424871             0.012451
C             2.800000            -2.424871             0.059547
C             3.500000            -1.212436             0.077292
H             3.350000             0.952628             0.057958
C             4.900000            -1.212436             0.068393
C             3.500000            -3.637307             0.042730
C             4.900000            -3.637307             0.027681
C             5.600000            -2.424871             0.097804
H             5.450000            -0.259808             0.096492
C             7.000000            -2.424871             0.072805
C             5.600000            -4.849742             0.072478
B             7.000000            -4.849742             0.064496
N             7.700000            -3.637307             0.008585
H             7.550000            -1.472243             0.052790
C             9.100000            -3.637307             0.085154
C             7.700000            -6.062178             0.020999
C             9.100000            -6.062178             0.082674
C             9.800000            -4.849742             0.020641
H             9.650000            -2.684679             0.047550
C            11.200000            -4.849742             0.029993
C             9.800000            -7.274613             0.034497
C            11.200000            -7.274613             0.092795
C            11.900000            -6.062178             0.003012
H            11.750000            -3.897114             0.072004
C            13.300000            -6.062178             0.037622
C            11.900000            -8.487049             0.058803
C            13.300000            -8.487049             0.032995
C            14.000000            -7.274613             0.086493
H            13.850000            -5.109550             0.085495
H            13.850000            -9.439677             0.054810
H            15.100000            -7.274613             0.004341
C            -2.800000             0.000000             0.053358
C            -3.500000            -1.212436             0.082527
C            -2.800000            -2.424871             0.056627
C            -1.400000            -2.424871             0.021924
H            -3.350000             0.952628             0.032334
H            -4.600000            -1.212436             0.006504
H            -3.350000            -3.377499             0.037382
C            -0.700000            -3.637307             0.025853
C             0.700000            -3.637307             0.026060
H            -1.250000            -4.589935             0.047249
C             1.400000            -4.849742             0.009483
C             2.800000            -4.849742             0.006315
H             0.850000            -5.802370             0.081648
C             3.500000            -6.062178             0.006845
C             4.900000            -6.062178             0.029764
H             2.950000            -7.014806             0.078757
C             5.600000            -7.274613             0.045637
C             7.000000            -7.274613             0.091018
H             5.050000            -8.227241             0.055067
C             7.700000            -8.487049             0.042922
C             9.100000            -8.487049             0.039905
H             7.150000            -9.439677             0.006330
C             9.800000            -9.699485             0.071619
C            11.200000            -9.699485             0.071992
H             9.250000           -10.652112             0.074117
H            11.750000           -10.652112             0.068937
