66
isomero_12_13
C             0.700000             1.212436             0.007062
C            -0.700000             1.212436             0.065722
C            -1.400000             0.000000             0.051966
C            -0.700000            -1.212436             0.094753
C             0.700000            -1.212436             0.002085
C             1.400000            -0.000000             0.072872
H             1.250000             2.165064             0.039852
H            -1.250000             2.165064             0.068725
C             2.800000             0.000000             0.007309
C             1.400000            -2.424871             0.075805
C             2.800000            -2.424871             0.005072
C             3.500000            -1.212436             0.064241
H             3.350000             0.952628             0.050077
C             4.900000            -1.212436             0.053009
C             3.500000            -3.637307             0.073825
C             4.900000            -3.637307             0.027457
N             5.600000            -2.424871             0.023804
H             5.450000            -0.259808             0.075994
B             7.000000            -2.424871             0.096009
C             5.600000            -4.849742             0.016621
C             7.000000            -4.849742             0.037859
C             7.700000            -3.637307             0.009680
H             7.550000            -1.472243             0.093456
C             9.100000            -3.637307             0.080292
C             7.700000            -6.062178             0.073021
C             9.100000            -6.062178             0.079471
C             9.800000            -4.849742             0.057357
H             9.650000            -2.684679             0.036169
C            11.200000            -4.849742             0.016133
C             9.800000            -7.274613             0.088637
C            11.200000            -7.274613             0.090200
C            11.900000            -6.062178             0.075858
H            11.750000            -3.897114             0.036179
C            13.300000            -6.062178             0.049622
C            11.900000            -8.487049             0.065869
C            13.300000            -8.487049             0.028897
C            14.000000            -7.274613             0.014306
H            13.850000            -5.109550             0.030813
H            13.850000            -9.439677             0.034744
H            15.100000            -7.274613             0.013954
C            -2.800000             0.000000             0.021624
C            -3.500000            -1.212436             0.055582
C            -2.800000            -2.424871             0.005118
C            -1.400000            -2.424871             0.041735
H            -3.350000             0.952628             0.071158
H            -4.600000            -1.212436             0.087927
H            -3.350000            -3.377499             0.060148
C            -0.700000            -3.637307             0.046497
C             0.700000            -3.637307             0.081542
H            -1.250000            -4.589935             0.032212
C             1.400000            -4.849742             0.037639
C             2.800000            -4.849742             0.013802
H             0.850000            -5.802370             0.065359
C             3.500000            -6.062178             0.002549
C             4.900000            -6.062178             0.023369
H             2.950000            -7.014806             0.097878
C             5.600000            -7.274613             0.094302
C             7.000000            -7.274613             0.098106
H             5.050000            -8.227241             0.006696
C             7.700000            -8.487049             0.019526
C             9.100000            -8.487049             0.042341
H             7.150000            -9.439677             0.053708
C             9.800000            -9.699485             0.046328
C            11.200000            -9.699485             0.062591
H             9.250000           -10.652112             0.050256
H            11.750000           -10.652112             0.079178
