66
isomero_15_22
C             0.700000             1.212436             0.039289
C            -0.700000             1.212436             0.046276
C            -1.400000             0.000000             0.073782
C            -0.700000            -1.212436             0.087565
C             0.700000            -1.212436             0.097384
C             1.400000            -0.000000             0.072388
H             1.250000             2.165064             0.062291
H            -1.250000             2.165064             0.084209
C             2.800000             0.000000             0.037804
B             1.400000            -2.424871             0.089868
C             2.800000            -2.424871             0.078876
C             3.500000            -1.212436             0.090880
H             3.350000             0.952628             0.042141
C             4.900000            -1.212436             0.007059
C             3.500000            -3.637307             0.090752
C             4.900000            -3.637307             0.061274
C             5.600000            -2.424871             0.075034
H             5.450000            -0.259808             0.058040
C             7.000000            -2.424871             0.099452
C             5.600000            -4.849742             0.016587
C             7.000000            -4.849742             0.070882
C             7.700000            -3.637307             0.016670
H             7.550000            -1.472243             0.007933
C             9.100000            -3.637307             0.063408
C             7.700000            -6.062178             0.055148
C             9.100000            -6.062178             0.077227
C             9.800000            -4.849742             0.005488
H             9.650000            -2.684679             0.004664
C            11.200000            -4.849742             0.058251
C             9.800000            -7.274613             0.076174
C            11.200000            -7.274613             0.018526
C            11.900000            -6.062178             0.053596
H            11.750000            -3.897114             0.057370
C            13.300000            -6.062178             0.060494
C            11.900000            -8.487049             0.004079
C            13.300000            -8.487049             0.027012
C            14.000000            -7.274613             0.017895
H            13.850000            -5.109550             0.052773
H            13.850000            -9.439677             0.073508
H            15.100000            -7.274613             0.091763
C            -2.800000             0.000000             0.003060
C            -3.500000            -1.212436             0.082422
C            -2.800000            -2.424871             0.084739
C            -1.400000            -2.424871             0.046964
H            -3.350000             0.952628             0.037032
H            -4.600000            -1.212436             0.007564
H            -3.350000            -3.377499             0.016996
C            -0.700000            -3.637307             0.067196
N             0.700000            -3.637307             0.059013
H            -1.250000            -4.589935             0.066779
C             1.400000            -4.849742             0.045026
C             2.800000            -4.849742             0.079194
H             0.850000            -5.802370             0.045580
C             3.500000            -6.062178             0.089447
C             4.900000            -6.062178             0.007256
H             2.950000            -7.014806             0.063544
C             5.600000            -7.274613             0.080862
C             7.000000            -7.274613             0.032110
H             5.050000            -8.227241             0.053607
C             7.700000            -8.487049             0.086608
C             9.100000            -8.487049             0.053422
H             7.150000            -9.439677             0.079361
C             9.800000            -9.699485             0.058623
C            11.200000            -9.699485             0.088151
H             9.250000           -10.652112             0.044318
H            11.750000           -10.652112             0.009316
