66
isomero_9_10
C             0.700000             1.212436             0.007354
C            -0.700000             1.212436             0.050519
C            -1.400000             0.000000             0.027420
N            -0.700000            -1.212436             0.056764
B             0.700000            -1.212436             0.002751
C             1.400000            -0.000000             0.061372
H             1.250000             2.165064             0.042361
H            -1.250000             2.165064             0.064530
C             2.800000             0.000000             0.030612
C             1.400000            -2.424871             0.029078
C             2.800000            -2.424871             0.043052
C             3.500000            -1.212436             0.055027
H             3.350000             0.952628             0.012246
C             4.900000            -1.212436             0.013043
C             3.500000            -3.637307             0.022879
C             4.900000            -3.637307             0.010692
C             5.600000            -2.424871             0.009304
H             5.450000            -0.259808             0.018857
C             7.000000            -2.424871             0.068350
C             5.600000            -4.849742             0.054148
C             7.000000            -4.849742             0.052141
C             7.700000            -3.637307             0.094182
H             7.550000            -1.472243             0.063750
C             9.100000            -3.637307             0.071856
C             7.700000            -6.062178             0.042444
C             9.100000            -6.062178             0.024836
C             9.800000            -4.849742             0.093599
H             9.650000            -2.684679             0.080213
C            11.200000            -4.849742             0.076163
C             9.800000            -7.274613             0.006175
C            11.200000            -7.274613             0.090665
C            11.900000            -6.062178             0.065563
H            11.750000            -3.897114             0.094795
C            13.300000            -6.062178             0.054524
C            11.900000            -8.487049             0.030532
C            13.300000            -8.487049             0.008852
C            14.000000            -7.274613             0.042153
H            13.850000            -5.109550             0.036753
H            13.850000            -9.439677             0.085253
H            15.100000            -7.274613             0.098392
C            -2.800000             0.000000             0.005385
C            -3.500000            -1.212436             0.035714
C            -2.800000            -2.424871             0.099907
C            -1.400000            -2.424871             0.041502
H            -3.350000             0.952628             0.038065
H            -4.600000            -1.212436             0.010458
H            -3.350000            -3.377499             0.058961
C            -0.700000            -3.637307             0.014632
C             0.700000            -3.637307             0.037658
H            -1.250000            -4.589935             0.093635
C             1.400000            -4.849742             0.070037
C             2.800000            -4.849742             0.024293
H             0.850000            -5.802370             0.074212
C             3.500000            -6.062178             0.032664
C             4.900000            -6.062178             0.036996
H             2.950000            -7.014806             0.049279
C             5.600000            -7.274613             0.020062
C             7.000000            -7.274613             0.028757
H             5.050000            -8.227241             0.029259
C             7.700000            -8.487049             0.042984
C             9.100000            -8.487049             0.047811
H             7.150000            -9.439677             0.093192
C             9.800000            -9.699485             0.083623
C            11.200000            -9.699485             0.028998
H             9.250000           -10.652112             0.095808
H            11.750000           -10.652112             0.072305
