66
isomero_7_8
C             0.700000             1.212436             0.066672
C            -0.700000             1.212436             0.045446
C            -1.400000             0.000000             0.044688
C            -0.700000            -1.212436             0.001703
C             0.700000            -1.212436             0.086142
C             1.400000            -0.000000             0.093782
H             1.250000             2.165064             0.047877
H            -1.250000             2.165064             0.056983
C             2.800000             0.000000             0.099280
C             1.400000            -2.424871             0.040413
C             2.800000            -2.424871             0.021984
N             3.500000            -1.212436             0.086650
H             3.350000             0.952628             0.068902
B             4.900000            -1.212436             0.017147
C             3.500000            -3.637307             0.000902
C             4.900000            -3.637307             0.016908
C             5.600000            -2.424871             0.020639
H             5.450000            -0.259808             0.090162
C             7.000000            -2.424871             0.070914
C             5.600000            -4.849742             0.013193
C             7.000000            -4.849742             0.042520
C             7.700000            -3.637307             0.066145
H             7.550000            -1.472243             0.032238
C             9.100000            -3.637307             0.059744
C             7.700000            -6.062178             0.021065
C             9.100000            -6.062178             0.018962
C             9.800000            -4.849742             0.020832
H             9.650000            -2.684679             0.071335
C            11.200000            -4.849742             0.025270
C             9.800000            -7.274613             0.027002
C            11.200000            -7.274613             0.048176
C            11.900000            -6.062178             0.022067
H            11.750000            -3.897114             0.035466
C            13.300000            -6.062178             0.063773
C            11.900000            -8.487049             0.074975
C            13.300000            -8.487049             0.049242
C            14.000000            -7.274613             0.061739
H            13.850000            -5.109550             0.031945
H            13.850000            -9.439677             0.030250
H            15.100000            -7.274613             0.014179
C            -2.800000             0.000000             0.084434
C            -3.500000            -1.212436             0.028815
C            -2.800000            -2.424871             0.090883
C            -1.400000            -2.424871             0.011321
H            -3.350000             0.952628             0.061386
H            -4.600000            -1.212436             0.028390
H            -3.350000            -3.377499             0.050813
C            -0.700000            -3.637307             0.053888
C             0.700000            -3.637307             0.005215
H            -1.250000            -4.589935             0.043708
C             1.400000            -4.849742             0.021873
C             2.800000            -4.849742             0.091834
H             0.850000            -5.802370             0.069145
C             3.500000            -6.062178             0.011593
C             4.900000            -6.062178             0.035962
H             2.950000            -7.014806             0.030606
C             5.600000            -7.274613             0.030225
C             7.000000            -7.274613             0.056145
H             5.050000            -8.227241             0.079610
C             7.700000            -8.487049             0.046995
C             9.100000            -8.487049             0.079117
H             7.150000            -9.439677             0.041877
C             9.800000            -9.699485             0.073953
C            11.200000            -9.699485             0.035752
H             9.250000           -10.652112             0.094982
H            11.750000           -10.652112             0.075015
