66
isomero_31_24
C             0.700000             1.212436             0.032902
C            -0.700000             1.212436             0.076234
C            -1.400000             0.000000             0.075676
C            -0.700000            -1.212436             0.096128
C             0.700000            -1.212436             0.056989
C             1.400000            -0.000000             0.060851
H             1.250000             2.165064             0.036509
H            -1.250000             2.165064             0.034355
C             2.800000             0.000000             0.059999
C             1.400000            -2.424871             0.052563
C             2.800000            -2.424871             0.048497
C             3.500000            -1.212436             0.065565
H             3.350000             0.952628             0.003825
C             4.900000            -1.212436             0.018992
C             3.500000            -3.637307             0.092875
C             4.900000            -3.637307             0.058298
C             5.600000            -2.424871             0.001541
H             5.450000            -0.259808             0.029368
C             7.000000            -2.424871             0.004526
C             5.600000            -4.849742             0.079473
C             7.000000            -4.849742             0.071137
C             7.700000            -3.637307             0.053636
H             7.550000            -1.472243             0.058679
C             9.100000            -3.637307             0.021095
C             7.700000            -6.062178             0.041392
C             9.100000            -6.062178             0.051582
C             9.800000            -4.849742             0.083833
H             9.650000            -2.684679             0.065991
N            11.200000            -4.849742             0.048118
C             9.800000            -7.274613             0.085276
C            11.200000            -7.274613             0.048153
B            11.900000            -6.062178             0.027230
H            11.750000            -3.897114             0.073120
C            13.300000            -6.062178             0.096947
C            11.900000            -8.487049             0.037562
C            13.300000            -8.487049             0.023860
C            14.000000            -7.274613             0.024270
H            13.850000            -5.109550             0.001894
H            13.850000            -9.439677             0.098265
H            15.100000            -7.274613             0.080262
C            -2.800000             0.000000             0.056349
C            -3.500000            -1.212436             0.038883
C            -2.800000            -2.424871             0.065253
C            -1.400000            -2.424871             0.099371
H            -3.350000             0.952628             0.071377
H            -4.600000            -1.212436             0.010237
H            -3.350000            -3.377499             0.044729
C            -0.700000            -3.637307             0.069279
C             0.700000            -3.637307             0.033296
H            -1.250000            -4.589935             0.092175
C             1.400000            -4.849742             0.063249
C             2.800000            -4.849742             0.093219
H             0.850000            -5.802370             0.042592
C             3.500000            -6.062178             0.030049
C             4.900000            -6.062178             0.088903
H             2.950000            -7.014806             0.001737
C             5.600000            -7.274613             0.014806
C             7.000000            -7.274613             0.095916
H             5.050000            -8.227241             0.071447
C             7.700000            -8.487049             0.030647
C             9.100000            -8.487049             0.082810
H             7.150000            -9.439677             0.080789
C             9.800000            -9.699485             0.090926
C            11.200000            -9.699485             0.064281
H             9.250000           -10.652112             0.062869
H            11.750000           -10.652112             0.011847
