66
isomero_3_8
C             0.700000             1.212436             0.042010
C            -0.700000             1.212436             0.054591
C            -1.400000             0.000000             0.018230
C            -0.700000            -1.212436             0.023627
C             0.700000            -1.212436             0.020541
C             1.400000            -0.000000             0.025969
H             1.250000             2.165064             0.094263
H            -1.250000             2.165064             0.064157
B             2.800000             0.000000             0.082906
C             1.400000            -2.424871             0.038876
C             2.800000            -2.424871             0.016841
N             3.500000            -1.212436             0.074012
H             3.350000             0.952628             0.087280
C             4.900000            -1.212436             0.035552
C             3.500000            -3.637307             0.017883
C             4.900000            -3.637307             0.099642
C             5.600000            -2.424871             0.095913
H             5.450000            -0.259808             0.015600
C             7.000000            -2.424871             0.092894
C             5.600000            -4.849742             0.042457
C             7.000000            -4.849742             0.022308
C             7.700000            -3.637307             0.013640
H             7.550000            -1.472243             0.026018
C             9.100000            -3.637307             0.054447
C             7.700000            -6.062178             0.008221
C             9.100000            -6.062178             0.059813
C             9.800000            -4.849742             0.002919
H             9.650000            -2.684679             0.045491
C            11.200000            -4.849742             0.033250
C             9.800000            -7.274613             0.094367
C            11.200000            -7.274613             0.030310
C            11.900000            -6.062178             0.042822
H            11.750000            -3.897114             0.066103
C            13.300000            -6.062178             0.038109
C            11.900000            -8.487049             0.013617
C            13.300000            -8.487049             0.009663
C            14.000000            -7.274613             0.030516
H            13.850000            -5.109550             0.082388
H            13.850000            -9.439677             0.062725
H            15.100000            -7.274613             0.020593
C            -2.800000             0.000000             0.098019
C            -3.500000            -1.212436             0.043777
C            -2.800000            -2.424871             0.083520
C            -1.400000            -2.424871             0.053918
H            -3.350000             0.952628             0.002513
H            -4.600000            -1.212436             0.000682
H            -3.350000            -3.377499             0.078609
C            -0.700000            -3.637307             0.044739
C             0.700000            -3.637307             0.028874
H            -1.250000            -4.589935             0.086318
C             1.400000            -4.849742             0.065623
C             2.800000            -4.849742             0.028469
H             0.850000            -5.802370             0.064457
C             3.500000            -6.062178             0.026358
C             4.900000            -6.062178             0.017478
H             2.950000            -7.014806             0.036862
C             5.600000            -7.274613             0.053754
C             7.000000            -7.274613             0.092641
H             5.050000            -8.227241             0.074912
C             7.700000            -8.487049             0.014774
C             9.100000            -8.487049             0.000289
H             7.150000            -9.439677             0.012701
C             9.800000            -9.699485             0.091692
C            11.200000            -9.699485             0.067212
H             9.250000           -10.652112             0.011379
H            11.750000           -10.652112             0.096023
