66
isomero_26_33
C             0.700000             1.212436             0.067256
C            -0.700000             1.212436             0.008433
C            -1.400000             0.000000             0.006217
C            -0.700000            -1.212436             0.069517
C             0.700000            -1.212436             0.000206
C             1.400000            -0.000000             0.015686
H             1.250000             2.165064             0.027455
H            -1.250000             2.165064             0.031523
C             2.800000             0.000000             0.071404
C             1.400000            -2.424871             0.057179
C             2.800000            -2.424871             0.051519
C             3.500000            -1.212436             0.057733
H             3.350000             0.952628             0.000494
C             4.900000            -1.212436             0.035223
C             3.500000            -3.637307             0.054473
C             4.900000            -3.637307             0.009206
C             5.600000            -2.424871             0.027232
H             5.450000            -0.259808             0.059073
C             7.000000            -2.424871             0.000463
C             5.600000            -4.849742             0.003075
B             7.000000            -4.849742             0.037671
C             7.700000            -3.637307             0.016552
H             7.550000            -1.472243             0.030622
C             9.100000            -3.637307             0.026997
N             7.700000            -6.062178             0.030721
C             9.100000            -6.062178             0.058402
C             9.800000            -4.849742             0.053852
H             9.650000            -2.684679             0.079067
C            11.200000            -4.849742             0.037272
C             9.800000            -7.274613             0.075201
C            11.200000            -7.274613             0.065258
C            11.900000            -6.062178             0.055194
H            11.750000            -3.897114             0.085092
C            13.300000            -6.062178             0.042525
C            11.900000            -8.487049             0.057440
C            13.300000            -8.487049             0.076825
C            14.000000            -7.274613             0.053951
H            13.850000            -5.109550             0.098427
H            13.850000            -9.439677             0.010559
H            15.100000            -7.274613             0.030100
C            -2.800000             0.000000             0.037985
C            -3.500000            -1.212436             0.047272
C            -2.800000            -2.424871             0.022257
C            -1.400000            -2.424871             0.032074
H            -3.350000             0.952628             0.022685
H            -4.600000            -1.212436             0.002176
H            -3.350000            -3.377499             0.001547
C            -0.700000            -3.637307             0.078385
C             0.700000            -3.637307             0.001865
H            -1.250000            -4.589935             0.090273
C             1.400000            -4.849742             0.019660
C             2.800000            -4.849742             0.060903
H             0.850000            -5.802370             0.052287
C             3.500000            -6.062178             0.070673
C             4.900000            -6.062178             0.035320
H             2.950000            -7.014806             0.075889
C             5.600000            -7.274613             0.050558
C             7.000000            -7.274613             0.076577
H             5.050000            -8.227241             0.036253
C             7.700000            -8.487049             0.092502
C             9.100000            -8.487049             0.090110
H             7.150000            -9.439677             0.055171
C             9.800000            -9.699485             0.052103
C            11.200000            -9.699485             0.017902
H             9.250000           -10.652112             0.060892
H            11.750000           -10.652112             0.072796
