66
isomero_9_15
C             0.700000             1.212436             0.086481
C            -0.700000             1.212436             0.052325
C            -1.400000             0.000000             0.005277
C            -0.700000            -1.212436             0.096002
B             0.700000            -1.212436             0.067221
C             1.400000            -0.000000             0.006547
H             1.250000             2.165064             0.097914
H            -1.250000             2.165064             0.029485
C             2.800000             0.000000             0.094991
N             1.400000            -2.424871             0.017342
C             2.800000            -2.424871             0.000090
C             3.500000            -1.212436             0.087846
H             3.350000             0.952628             0.085054
C             4.900000            -1.212436             0.033641
C             3.500000            -3.637307             0.009833
C             4.900000            -3.637307             0.062812
C             5.600000            -2.424871             0.040042
H             5.450000            -0.259808             0.092805
C             7.000000            -2.424871             0.088061
C             5.600000            -4.849742             0.061908
C             7.000000            -4.849742             0.089394
C             7.700000            -3.637307             0.020905
H             7.550000            -1.472243             0.025830
C             9.100000            -3.637307             0.000412
C             7.700000            -6.062178             0.009045
C             9.100000            -6.062178             0.059582
C             9.800000            -4.849742             0.029931
H             9.650000            -2.684679             0.077543
C            11.200000            -4.849742             0.064239
C             9.800000            -7.274613             0.017955
C            11.200000            -7.274613             0.028334
C            11.900000            -6.062178             0.013585
H            11.750000            -3.897114             0.056350
C            13.300000            -6.062178             0.014426
C            11.900000            -8.487049             0.085605
C            13.300000            -8.487049             0.003041
C            14.000000            -7.274613             0.085032
H            13.850000            -5.109550             0.023280
H            13.850000            -9.439677             0.075494
H            15.100000            -7.274613             0.005639
C            -2.800000             0.000000             0.070765
C            -3.500000            -1.212436             0.018412
C            -2.800000            -2.424871             0.099460
C            -1.400000            -2.424871             0.051670
H            -3.350000             0.952628             0.053815
H            -4.600000            -1.212436             0.027151
H            -3.350000            -3.377499             0.037826
C            -0.700000            -3.637307             0.051215
C             0.700000            -3.637307             0.051542
H            -1.250000            -4.589935             0.046893
C             1.400000            -4.849742             0.015417
C             2.800000            -4.849742             0.021513
H             0.850000            -5.802370             0.064517
C             3.500000            -6.062178             0.060614
C             4.900000            -6.062178             0.018235
H             2.950000            -7.014806             0.086769
C             5.600000            -7.274613             0.052772
C             7.000000            -7.274613             0.097454
H             5.050000            -8.227241             0.028548
C             7.700000            -8.487049             0.094908
C             9.100000            -8.487049             0.060761
H             7.150000            -9.439677             0.077649
C             9.800000            -9.699485             0.006348
C            11.200000            -9.699485             0.059116
H             9.250000           -10.652112             0.089976
H            11.750000           -10.652112             0.050979
