66
isomero_19_26
C             0.700000             1.212436             0.087420
C            -0.700000             1.212436             0.082860
C            -1.400000             0.000000             0.003521
C            -0.700000            -1.212436             0.090614
C             0.700000            -1.212436             0.062793
C             1.400000            -0.000000             0.057260
H             1.250000             2.165064             0.073819
H            -1.250000             2.165064             0.050822
C             2.800000             0.000000             0.086483
C             1.400000            -2.424871             0.014024
C             2.800000            -2.424871             0.065714
C             3.500000            -1.212436             0.059299
H             3.350000             0.952628             0.051337
C             4.900000            -1.212436             0.024462
C             3.500000            -3.637307             0.097351
C             4.900000            -3.637307             0.091621
C             5.600000            -2.424871             0.065201
H             5.450000            -0.259808             0.011050
C             7.000000            -2.424871             0.051463
C             5.600000            -4.849742             0.048105
N             7.000000            -4.849742             0.006817
B             7.700000            -3.637307             0.038884
H             7.550000            -1.472243             0.080520
C             9.100000            -3.637307             0.078666
C             7.700000            -6.062178             0.011998
C             9.100000            -6.062178             0.041198
C             9.800000            -4.849742             0.079807
H             9.650000            -2.684679             0.025272
C            11.200000            -4.849742             0.058748
C             9.800000            -7.274613             0.003673
C            11.200000            -7.274613             0.068163
C            11.900000            -6.062178             0.082682
H            11.750000            -3.897114             0.069991
C            13.300000            -6.062178             0.035177
C            11.900000            -8.487049             0.048915
C            13.300000            -8.487049             0.028413
C            14.000000            -7.274613             0.026597
H            13.850000            -5.109550             0.076493
H            13.850000            -9.439677             0.058438
H            15.100000            -7.274613             0.053856
C            -2.800000             0.000000             0.099067
C            -3.500000            -1.212436             0.076916
C            -2.800000            -2.424871             0.058610
C            -1.400000            -2.424871             0.079085
H            -3.350000             0.952628             0.054892
H            -4.600000            -1.212436             0.007642
H            -3.350000            -3.377499             0.047432
C            -0.700000            -3.637307             0.084973
C             0.700000            -3.637307             0.040308
H            -1.250000            -4.589935             0.023680
C             1.400000            -4.849742             0.054149
C             2.800000            -4.849742             0.036891
H             0.850000            -5.802370             0.075852
C             3.500000            -6.062178             0.076904
C             4.900000            -6.062178             0.034631
H             2.950000            -7.014806             0.096745
C             5.600000            -7.274613             0.035581
C             7.000000            -7.274613             0.019319
H             5.050000            -8.227241             0.009106
C             7.700000            -8.487049             0.031323
C             9.100000            -8.487049             0.095834
H             7.150000            -9.439677             0.063846
C             9.800000            -9.699485             0.020814
C            11.200000            -9.699485             0.033312
H             9.250000           -10.652112             0.034302
H            11.750000           -10.652112             0.089484
