120
isomero_38_50
C             0.700000             1.212436             0.043544
C            -0.700000             1.212436             0.040539
C            -1.400000             0.000000             0.023123
C            -0.700000            -1.212436             0.009591
C             0.700000            -1.212436             0.096499
C             1.400000            -0.000000             0.088774
H             1.250000             2.165064             0.086630
H            -1.250000             2.165064             0.034660
C             2.800000             0.000000             0.093625
C             1.400000            -2.424871             0.095434
C             2.800000            -2.424871             0.099318
C             3.500000            -1.212436             0.048645
H             3.350000             0.952628             0.029216
C             4.900000            -1.212436             0.063939
C             3.500000            -3.637307             0.035795
C             4.900000            -3.637307             0.047492
C             5.600000            -2.424871             0.012695
H             5.450000            -0.259808             0.011895
C             7.000000            -2.424871             0.034136
C             5.600000            -4.849742             0.061273
C             7.000000            -4.849742             0.076891
C             7.700000            -3.637307             0.075010
H             7.550000            -1.472243             0.082076
C             9.100000            -3.637307             0.020533
C             7.700000            -6.062178             0.078951
C             9.100000            -6.062178             0.072906
C             9.800000            -4.849742             0.080058
H             9.650000            -2.684679             0.035816
C            11.200000            -4.849742             0.096075
C             9.800000            -7.274613             0.097213
C            11.200000            -7.274613             0.066437
C            11.900000            -6.062178             0.021612
H            11.750000            -3.897114             0.081856
C            13.300000            -6.062178             0.062218
C            11.900000            -8.487049             0.012545
C            13.300000            -8.487049             0.050990
C            14.000000            -7.274613             0.092782
H            13.850000            -5.109550             0.025639
H            13.850000            -9.439677             0.093275
H            15.100000            -7.274613             0.065728
C            -2.800000             0.000000             0.096631
C            -3.500000            -1.212436             0.032971
C            -2.800000            -2.424871             0.072290
C            -1.400000            -2.424871             0.067928
H            -3.350000             0.952628             0.007826
C            -0.700000            -3.637307             0.057012
C             0.700000            -3.637307             0.073495
C             1.400000            -4.849742             0.064572
C             2.800000            -4.849742             0.062323
C             3.500000            -6.062178             0.048285
C             4.900000            -6.062178             0.050274
C             5.600000            -7.274613             0.058722
C             7.000000            -7.274613             0.007978
C             7.700000            -8.487049             0.069827
C             9.100000            -8.487049             0.029839
C             9.800000            -9.699485             0.052194
C            11.200000            -9.699485             0.070029
H            11.750000           -10.652112             0.026501
C            -4.900000            -1.212436             0.055661
C            -5.600000            -2.424871             0.002427
C            -4.900000            -3.637307             0.038096
C            -3.500000            -3.637307             0.034694
H            -5.450000            -0.259808             0.045804
B            -2.800000            -4.849742             0.037327
C            -1.400000            -4.849742             0.038633
C            -0.700000            -6.062178             0.016371
C             0.700000            -6.062178             0.047770
C             1.400000            -7.274613             0.094372
C             2.800000            -7.274613             0.019288
C             3.500000            -8.487049             0.095007
C             4.900000            -8.487049             0.029409
C             5.600000            -9.699485             0.085297
C             7.000000            -9.699485             0.026508
C             7.700000           -10.911920             0.066331
C             9.100000           -10.911920             0.010092
H             9.650000           -11.864548             0.015689
C            -7.000000            -2.424871             0.048028
C            -7.700000            -3.637307             0.054426
C            -7.000000            -4.849742             0.019885
C            -5.600000            -4.849742             0.082407
H            -7.550000            -1.472243             0.071838
C            -4.900000            -6.062178             0.037593
N            -3.500000            -6.062178             0.027773
C            -2.800000            -7.274613             0.082195
C            -1.400000            -7.274613             0.062478
C            -0.700000            -8.487049             0.036209
C             0.700000            -8.487049             0.041070
C             1.400000            -9.699485             0.095961
C             2.800000            -9.699485             0.029150
C             3.500000           -10.911920             0.055245
C             4.900000           -10.911920             0.064875
C             5.600000           -12.124356             0.077960
C             7.000000           -12.124356             0.094554
H             7.550000           -13.076984             0.007048
C            -9.100000            -3.637307             0.026462
C            -9.800000            -4.849742             0.022203
C            -9.100000            -6.062178             0.015648
C            -7.700000            -6.062178             0.022593
H            -9.650000            -2.684679             0.031957
H           -10.900000            -4.849742             0.037686
H            -9.650000            -7.014806             0.099556
C            -7.000000            -7.274613             0.009245
C            -5.600000            -7.274613             0.066761
H            -7.550000            -8.227241             0.016568
C            -4.900000            -8.487049             0.095593
C            -3.500000            -8.487049             0.080018
H            -5.450000            -9.439677             0.034029
C            -2.800000            -9.699485             0.029129
C            -1.400000            -9.699485             0.078044
H            -3.350000           -10.652112             0.028387
C            -0.700000           -10.911920             0.067876
C             0.700000           -10.911920             0.036244
H            -1.250000           -11.864548             0.042540
C             1.400000           -12.124356             0.032740
C             2.800000           -12.124356             0.022959
H             0.850000           -13.076984             0.057211
C             3.500000           -13.336791             0.063889
C             4.900000           -13.336791             0.072808
H             2.950000           -14.289419             0.032794
H             5.450000           -14.289419             0.087994
