120
isomero_37_38
C             0.700000             1.212436             0.073310
C            -0.700000             1.212436             0.014730
C            -1.400000             0.000000             0.023531
C            -0.700000            -1.212436             0.018102
C             0.700000            -1.212436             0.014783
C             1.400000            -0.000000             0.022436
H             1.250000             2.165064             0.090809
H            -1.250000             2.165064             0.081712
C             2.800000             0.000000             0.030153
C             1.400000            -2.424871             0.098367
C             2.800000            -2.424871             0.011080
C             3.500000            -1.212436             0.008469
H             3.350000             0.952628             0.030492
C             4.900000            -1.212436             0.043746
C             3.500000            -3.637307             0.027310
C             4.900000            -3.637307             0.058945
C             5.600000            -2.424871             0.027787
H             5.450000            -0.259808             0.080905
C             7.000000            -2.424871             0.063501
C             5.600000            -4.849742             0.037049
C             7.000000            -4.849742             0.071736
C             7.700000            -3.637307             0.035388
H             7.550000            -1.472243             0.017899
C             9.100000            -3.637307             0.004506
C             7.700000            -6.062178             0.051069
C             9.100000            -6.062178             0.018625
C             9.800000            -4.849742             0.062894
H             9.650000            -2.684679             0.079993
C            11.200000            -4.849742             0.029354
C             9.800000            -7.274613             0.014782
C            11.200000            -7.274613             0.071606
C            11.900000            -6.062178             0.017226
H            11.750000            -3.897114             0.083867
C            13.300000            -6.062178             0.015580
C            11.900000            -8.487049             0.026197
C            13.300000            -8.487049             0.094079
C            14.000000            -7.274613             0.046769
H            13.850000            -5.109550             0.062872
H            13.850000            -9.439677             0.002445
H            15.100000            -7.274613             0.090772
C            -2.800000             0.000000             0.025358
C            -3.500000            -1.212436             0.068754
C            -2.800000            -2.424871             0.019705
C            -1.400000            -2.424871             0.043565
H            -3.350000             0.952628             0.022725
C            -0.700000            -3.637307             0.056721
C             0.700000            -3.637307             0.083259
C             1.400000            -4.849742             0.024272
C             2.800000            -4.849742             0.093513
C             3.500000            -6.062178             0.010943
C             4.900000            -6.062178             0.092803
C             5.600000            -7.274613             0.053701
C             7.000000            -7.274613             0.004672
C             7.700000            -8.487049             0.000019
C             9.100000            -8.487049             0.073950
C             9.800000            -9.699485             0.012499
C            11.200000            -9.699485             0.053023
H            11.750000           -10.652112             0.016286
C            -4.900000            -1.212436             0.062224
C            -5.600000            -2.424871             0.002289
C            -4.900000            -3.637307             0.036545
C            -3.500000            -3.637307             0.048653
H            -5.450000            -0.259808             0.025903
N            -2.800000            -4.849742             0.084775
B            -1.400000            -4.849742             0.001705
C            -0.700000            -6.062178             0.032117
C             0.700000            -6.062178             0.065264
C             1.400000            -7.274613             0.035192
C             2.800000            -7.274613             0.096285
C             3.500000            -8.487049             0.020502
C             4.900000            -8.487049             0.084782
C             5.600000            -9.699485             0.089322
C             7.000000            -9.699485             0.085037
C             7.700000           -10.911920             0.081161
C             9.100000           -10.911920             0.093452
H             9.650000           -11.864548             0.057956
C            -7.000000            -2.424871             0.090338
C            -7.700000            -3.637307             0.093608
C            -7.000000            -4.849742             0.083134
C            -5.600000            -4.849742             0.055185
H            -7.550000            -1.472243             0.047809
C            -4.900000            -6.062178             0.035783
C            -3.500000            -6.062178             0.017246
C            -2.800000            -7.274613             0.091098
C            -1.400000            -7.274613             0.034826
C            -0.700000            -8.487049             0.014553
C             0.700000            -8.487049             0.069118
C             1.400000            -9.699485             0.003330
C             2.800000            -9.699485             0.017466
C             3.500000           -10.911920             0.037653
C             4.900000           -10.911920             0.077149
C             5.600000           -12.124356             0.037811
C             7.000000           -12.124356             0.046515
H             7.550000           -13.076984             0.000099
C            -9.100000            -3.637307             0.001795
C            -9.800000            -4.849742             0.097236
C            -9.100000            -6.062178             0.077761
C            -7.700000            -6.062178             0.020018
H            -9.650000            -2.684679             0.055152
H           -10.900000            -4.849742             0.076358
H            -9.650000            -7.014806             0.054943
C            -7.000000            -7.274613             0.082304
C            -5.600000            -7.274613             0.008409
H            -7.550000            -8.227241             0.038862
C            -4.900000            -8.487049             0.078808
C            -3.500000            -8.487049             0.077963
H            -5.450000            -9.439677             0.090687
C            -2.800000            -9.699485             0.062556
C            -1.400000            -9.699485             0.057315
H            -3.350000           -10.652112             0.068319
C            -0.700000           -10.911920             0.088758
C             0.700000           -10.911920             0.076379
H            -1.250000           -11.864548             0.061022
C             1.400000           -12.124356             0.047464
C             2.800000           -12.124356             0.073243
H             0.850000           -13.076984             0.042790
C             3.500000           -13.336791             0.007371
C             4.900000           -13.336791             0.087142
H             2.950000           -14.289419             0.002074
H             5.450000           -14.289419             0.031242
