120
isomero_35_36
C             0.700000             1.212436             0.011194
C            -0.700000             1.212436             0.044193
C            -1.400000             0.000000             0.069963
C            -0.700000            -1.212436             0.031831
C             0.700000            -1.212436             0.071435
C             1.400000            -0.000000             0.061630
H             1.250000             2.165064             0.046336
H            -1.250000             2.165064             0.024805
C             2.800000             0.000000             0.088249
C             1.400000            -2.424871             0.096586
C             2.800000            -2.424871             0.056435
C             3.500000            -1.212436             0.027441
H             3.350000             0.952628             0.052132
C             4.900000            -1.212436             0.015070
C             3.500000            -3.637307             0.028703
C             4.900000            -3.637307             0.005106
C             5.600000            -2.424871             0.064709
H             5.450000            -0.259808             0.048261
C             7.000000            -2.424871             0.094570
C             5.600000            -4.849742             0.042234
C             7.000000            -4.849742             0.004750
C             7.700000            -3.637307             0.014698
H             7.550000            -1.472243             0.091327
C             9.100000            -3.637307             0.088576
C             7.700000            -6.062178             0.070559
C             9.100000            -6.062178             0.067016
C             9.800000            -4.849742             0.045560
H             9.650000            -2.684679             0.024059
C            11.200000            -4.849742             0.099221
C             9.800000            -7.274613             0.031177
C            11.200000            -7.274613             0.042383
C            11.900000            -6.062178             0.015731
H            11.750000            -3.897114             0.078928
C            13.300000            -6.062178             0.035554
C            11.900000            -8.487049             0.002112
C            13.300000            -8.487049             0.046806
C            14.000000            -7.274613             0.077739
H            13.850000            -5.109550             0.074731
H            13.850000            -9.439677             0.084395
H            15.100000            -7.274613             0.080663
C            -2.800000             0.000000             0.034941
C            -3.500000            -1.212436             0.046733
C            -2.800000            -2.424871             0.094652
C            -1.400000            -2.424871             0.038416
H            -3.350000             0.952628             0.052090
C            -0.700000            -3.637307             0.044277
C             0.700000            -3.637307             0.031645
N             1.400000            -4.849742             0.089759
B             2.800000            -4.849742             0.076217
C             3.500000            -6.062178             0.051171
C             4.900000            -6.062178             0.021438
C             5.600000            -7.274613             0.004090
C             7.000000            -7.274613             0.022822
C             7.700000            -8.487049             0.003715
C             9.100000            -8.487049             0.043342
C             9.800000            -9.699485             0.050459
C            11.200000            -9.699485             0.042976
H            11.750000           -10.652112             0.016778
C            -4.900000            -1.212436             0.028518
C            -5.600000            -2.424871             0.082120
C            -4.900000            -3.637307             0.078543
C            -3.500000            -3.637307             0.016092
H            -5.450000            -0.259808             0.061860
C            -2.800000            -4.849742             0.096390
C            -1.400000            -4.849742             0.092174
C            -0.700000            -6.062178             0.077692
C             0.700000            -6.062178             0.019279
C             1.400000            -7.274613             0.091193
C             2.800000            -7.274613             0.078627
C             3.500000            -8.487049             0.025646
C             4.900000            -8.487049             0.042946
C             5.600000            -9.699485             0.054254
C             7.000000            -9.699485             0.020878
C             7.700000           -10.911920             0.064953
C             9.100000           -10.911920             0.098687
H             9.650000           -11.864548             0.052089
C            -7.000000            -2.424871             0.062092
C            -7.700000            -3.637307             0.030861
C            -7.000000            -4.849742             0.038259
C            -5.600000            -4.849742             0.098153
H            -7.550000            -1.472243             0.035242
C            -4.900000            -6.062178             0.055046
C            -3.500000            -6.062178             0.049309
C            -2.800000            -7.274613             0.016589
C            -1.400000            -7.274613             0.020428
C            -0.700000            -8.487049             0.091931
C             0.700000            -8.487049             0.022808
C             1.400000            -9.699485             0.054389
C             2.800000            -9.699485             0.090333
C             3.500000           -10.911920             0.055978
C             4.900000           -10.911920             0.007462
C             5.600000           -12.124356             0.022272
C             7.000000           -12.124356             0.081568
H             7.550000           -13.076984             0.094252
C            -9.100000            -3.637307             0.013488
C            -9.800000            -4.849742             0.062387
C            -9.100000            -6.062178             0.010721
C            -7.700000            -6.062178             0.058219
H            -9.650000            -2.684679             0.093604
H           -10.900000            -4.849742             0.043043
H            -9.650000            -7.014806             0.087134
C            -7.000000            -7.274613             0.077289
C            -5.600000            -7.274613             0.002496
H            -7.550000            -8.227241             0.052395
C            -4.900000            -8.487049             0.046025
C            -3.500000            -8.487049             0.053549
H            -5.450000            -9.439677             0.033209
C            -2.800000            -9.699485             0.099722
C            -1.400000            -9.699485             0.073630
H            -3.350000           -10.652112             0.056308
C            -0.700000           -10.911920             0.009859
C             0.700000           -10.911920             0.010392
H            -1.250000           -11.864548             0.028726
C             1.400000           -12.124356             0.076087
C             2.800000           -12.124356             0.014208
H             0.850000           -13.076984             0.000928
C             3.500000           -13.336791             0.069773
C             4.900000           -13.336791             0.074337
H             2.950000           -14.289419             0.086688
H             5.450000           -14.289419             0.084700
