120
isomero_39_51
C             0.700000             1.212436             0.018752
C            -0.700000             1.212436             0.040235
C            -1.400000             0.000000             0.007708
C            -0.700000            -1.212436             0.045943
C             0.700000            -1.212436             0.093383
C             1.400000            -0.000000             0.033660
H             1.250000             2.165064             0.095601
H            -1.250000             2.165064             0.047141
C             2.800000             0.000000             0.017808
C             1.400000            -2.424871             0.054470
C             2.800000            -2.424871             0.062394
C             3.500000            -1.212436             0.050914
H             3.350000             0.952628             0.048529
C             4.900000            -1.212436             0.045720
C             3.500000            -3.637307             0.089085
C             4.900000            -3.637307             0.053482
C             5.600000            -2.424871             0.049085
H             5.450000            -0.259808             0.099152
C             7.000000            -2.424871             0.017800
C             5.600000            -4.849742             0.022071
C             7.000000            -4.849742             0.071280
C             7.700000            -3.637307             0.051178
H             7.550000            -1.472243             0.060227
C             9.100000            -3.637307             0.064557
C             7.700000            -6.062178             0.043396
C             9.100000            -6.062178             0.047897
C             9.800000            -4.849742             0.099965
H             9.650000            -2.684679             0.054175
C            11.200000            -4.849742             0.003760
C             9.800000            -7.274613             0.008782
C            11.200000            -7.274613             0.060824
C            11.900000            -6.062178             0.087718
H            11.750000            -3.897114             0.012625
C            13.300000            -6.062178             0.016272
C            11.900000            -8.487049             0.094680
C            13.300000            -8.487049             0.049980
C            14.000000            -7.274613             0.040804
H            13.850000            -5.109550             0.051833
H            13.850000            -9.439677             0.088201
H            15.100000            -7.274613             0.043056
C            -2.800000             0.000000             0.021301
C            -3.500000            -1.212436             0.094280
C            -2.800000            -2.424871             0.024147
C            -1.400000            -2.424871             0.029676
H            -3.350000             0.952628             0.041786
C            -0.700000            -3.637307             0.072993
C             0.700000            -3.637307             0.026988
C             1.400000            -4.849742             0.049758
C             2.800000            -4.849742             0.052017
C             3.500000            -6.062178             0.062361
C             4.900000            -6.062178             0.013072
C             5.600000            -7.274613             0.032282
C             7.000000            -7.274613             0.022499
C             7.700000            -8.487049             0.056605
C             9.100000            -8.487049             0.095082
C             9.800000            -9.699485             0.078360
C            11.200000            -9.699485             0.094283
H            11.750000           -10.652112             0.051396
C            -4.900000            -1.212436             0.054046
C            -5.600000            -2.424871             0.043394
C            -4.900000            -3.637307             0.038281
C            -3.500000            -3.637307             0.053278
H            -5.450000            -0.259808             0.057157
C            -2.800000            -4.849742             0.026973
C            -1.400000            -4.849742             0.058349
C            -0.700000            -6.062178             0.080164
C             0.700000            -6.062178             0.059844
C             1.400000            -7.274613             0.046227
C             2.800000            -7.274613             0.062905
C             3.500000            -8.487049             0.049082
C             4.900000            -8.487049             0.041928
C             5.600000            -9.699485             0.000379
C             7.000000            -9.699485             0.024799
C             7.700000           -10.911920             0.098865
C             9.100000           -10.911920             0.079657
H             9.650000           -11.864548             0.008333
C            -7.000000            -2.424871             0.085842
C            -7.700000            -3.637307             0.058883
C            -7.000000            -4.849742             0.011910
B            -5.600000            -4.849742             0.068738
H            -7.550000            -1.472243             0.082278
N            -4.900000            -6.062178             0.095222
C            -3.500000            -6.062178             0.023759
C            -2.800000            -7.274613             0.012590
C            -1.400000            -7.274613             0.088321
C            -0.700000            -8.487049             0.074878
C             0.700000            -8.487049             0.025247
C             1.400000            -9.699485             0.087018
C             2.800000            -9.699485             0.035152
C             3.500000           -10.911920             0.037527
C             4.900000           -10.911920             0.019808
C             5.600000           -12.124356             0.081358
C             7.000000           -12.124356             0.099248
H             7.550000           -13.076984             0.092213
C            -9.100000            -3.637307             0.046385
C            -9.800000            -4.849742             0.077978
C            -9.100000            -6.062178             0.011520
C            -7.700000            -6.062178             0.097436
H            -9.650000            -2.684679             0.096898
H           -10.900000            -4.849742             0.043319
H            -9.650000            -7.014806             0.006168
C            -7.000000            -7.274613             0.013266
C            -5.600000            -7.274613             0.008081
H            -7.550000            -8.227241             0.001858
C            -4.900000            -8.487049             0.047820
C            -3.500000            -8.487049             0.017847
H            -5.450000            -9.439677             0.062484
C            -2.800000            -9.699485             0.063842
C            -1.400000            -9.699485             0.042465
H            -3.350000           -10.652112             0.056368
C            -0.700000           -10.911920             0.068989
C             0.700000           -10.911920             0.065040
H            -1.250000           -11.864548             0.099636
C             1.400000           -12.124356             0.076622
C             2.800000           -12.124356             0.096027
H             0.850000           -13.076984             0.052390
C             3.500000           -13.336791             0.036078
C             4.900000           -13.336791             0.014285
H             2.950000           -14.289419             0.022667
H             5.450000           -14.289419             0.063750
