120
isomero_32_44
C             0.700000             1.212436             0.099281
C            -0.700000             1.212436             0.064469
C            -1.400000             0.000000             0.034555
C            -0.700000            -1.212436             0.003899
C             0.700000            -1.212436             0.076002
C             1.400000            -0.000000             0.051464
H             1.250000             2.165064             0.069493
H            -1.250000             2.165064             0.058672
C             2.800000             0.000000             0.024598
C             1.400000            -2.424871             0.035147
C             2.800000            -2.424871             0.019043
C             3.500000            -1.212436             0.073764
H             3.350000             0.952628             0.081471
C             4.900000            -1.212436             0.042163
C             3.500000            -3.637307             0.021016
C             4.900000            -3.637307             0.022426
C             5.600000            -2.424871             0.097623
H             5.450000            -0.259808             0.063181
C             7.000000            -2.424871             0.043508
C             5.600000            -4.849742             0.032650
C             7.000000            -4.849742             0.088669
C             7.700000            -3.637307             0.095636
H             7.550000            -1.472243             0.015382
C             9.100000            -3.637307             0.051050
C             7.700000            -6.062178             0.029067
N             9.100000            -6.062178             0.075919
B             9.800000            -4.849742             0.015164
H             9.650000            -2.684679             0.001182
C            11.200000            -4.849742             0.003533
C             9.800000            -7.274613             0.037105
C            11.200000            -7.274613             0.082739
C            11.900000            -6.062178             0.023013
H            11.750000            -3.897114             0.016942
C            13.300000            -6.062178             0.089799
C            11.900000            -8.487049             0.092789
C            13.300000            -8.487049             0.016792
C            14.000000            -7.274613             0.085575
H            13.850000            -5.109550             0.087024
H            13.850000            -9.439677             0.000980
H            15.100000            -7.274613             0.058508
C            -2.800000             0.000000             0.050990
C            -3.500000            -1.212436             0.057470
C            -2.800000            -2.424871             0.082292
C            -1.400000            -2.424871             0.085086
H            -3.350000             0.952628             0.064214
C            -0.700000            -3.637307             0.016982
C             0.700000            -3.637307             0.011530
C             1.400000            -4.849742             0.061238
C             2.800000            -4.849742             0.015987
C             3.500000            -6.062178             0.012641
C             4.900000            -6.062178             0.099979
C             5.600000            -7.274613             0.085008
C             7.000000            -7.274613             0.077291
C             7.700000            -8.487049             0.070995
C             9.100000            -8.487049             0.028909
C             9.800000            -9.699485             0.027266
C            11.200000            -9.699485             0.031323
H            11.750000           -10.652112             0.086686
C            -4.900000            -1.212436             0.020895
C            -5.600000            -2.424871             0.060250
C            -4.900000            -3.637307             0.073699
C            -3.500000            -3.637307             0.032149
H            -5.450000            -0.259808             0.044006
C            -2.800000            -4.849742             0.018296
C            -1.400000            -4.849742             0.026738
C            -0.700000            -6.062178             0.095240
C             0.700000            -6.062178             0.081633
C             1.400000            -7.274613             0.049571
C             2.800000            -7.274613             0.018830
C             3.500000            -8.487049             0.063398
C             4.900000            -8.487049             0.089819
C             5.600000            -9.699485             0.020682
C             7.000000            -9.699485             0.099758
C             7.700000           -10.911920             0.060923
C             9.100000           -10.911920             0.089516
H             9.650000           -11.864548             0.058015
C            -7.000000            -2.424871             0.083419
C            -7.700000            -3.637307             0.022575
C            -7.000000            -4.849742             0.017336
C            -5.600000            -4.849742             0.084457
H            -7.550000            -1.472243             0.034917
C            -4.900000            -6.062178             0.039045
C            -3.500000            -6.062178             0.055053
C            -2.800000            -7.274613             0.022370
C            -1.400000            -7.274613             0.013339
C            -0.700000            -8.487049             0.006578
C             0.700000            -8.487049             0.006666
C             1.400000            -9.699485             0.066401
C             2.800000            -9.699485             0.053694
C             3.500000           -10.911920             0.079695
C             4.900000           -10.911920             0.070642
C             5.600000           -12.124356             0.039049
C             7.000000           -12.124356             0.062336
H             7.550000           -13.076984             0.074294
C            -9.100000            -3.637307             0.042370
C            -9.800000            -4.849742             0.010227
C            -9.100000            -6.062178             0.091699
C            -7.700000            -6.062178             0.049363
H            -9.650000            -2.684679             0.081171
H           -10.900000            -4.849742             0.001203
H            -9.650000            -7.014806             0.079036
C            -7.000000            -7.274613             0.012908
C            -5.600000            -7.274613             0.048195
H            -7.550000            -8.227241             0.097661
C            -4.900000            -8.487049             0.065829
C            -3.500000            -8.487049             0.077021
H            -5.450000            -9.439677             0.068861
C            -2.800000            -9.699485             0.018693
C            -1.400000            -9.699485             0.026481
H            -3.350000           -10.652112             0.003096
C            -0.700000           -10.911920             0.085661
C             0.700000           -10.911920             0.073143
H            -1.250000           -11.864548             0.020084
C             1.400000           -12.124356             0.036254
C             2.800000           -12.124356             0.080151
H             0.850000           -13.076984             0.094785
C             3.500000           -13.336791             0.032112
C             4.900000           -13.336791             0.086489
H             2.950000           -14.289419             0.071954
H             5.450000           -14.289419             0.031770
