120
isomero_15_8
C             0.700000             1.212436             0.036836
C            -0.700000             1.212436             0.015548
C            -1.400000             0.000000             0.023792
C            -0.700000            -1.212436             0.012694
C             0.700000            -1.212436             0.057139
C             1.400000            -0.000000             0.018276
H             1.250000             2.165064             0.040140
H            -1.250000             2.165064             0.018665
C             2.800000             0.000000             0.089273
C             1.400000            -2.424871             0.046361
B             2.800000            -2.424871             0.060922
N             3.500000            -1.212436             0.045258
H             3.350000             0.952628             0.051286
C             4.900000            -1.212436             0.081913
C             3.500000            -3.637307             0.009277
C             4.900000            -3.637307             0.076430
C             5.600000            -2.424871             0.063202
H             5.450000            -0.259808             0.033323
C             7.000000            -2.424871             0.050725
C             5.600000            -4.849742             0.090909
C             7.000000            -4.849742             0.079375
C             7.700000            -3.637307             0.035673
H             7.550000            -1.472243             0.080759
C             9.100000            -3.637307             0.027899
C             7.700000            -6.062178             0.076976
C             9.100000            -6.062178             0.075313
C             9.800000            -4.849742             0.037877
H             9.650000            -2.684679             0.049609
C            11.200000            -4.849742             0.059156
C             9.800000            -7.274613             0.073921
C            11.200000            -7.274613             0.004238
C            11.900000            -6.062178             0.029532
H            11.750000            -3.897114             0.020972
C            13.300000            -6.062178             0.047320
C            11.900000            -8.487049             0.063180
C            13.300000            -8.487049             0.093522
C            14.000000            -7.274613             0.038422
H            13.850000            -5.109550             0.017175
H            13.850000            -9.439677             0.060990
H            15.100000            -7.274613             0.000131
C            -2.800000             0.000000             0.001522
C            -3.500000            -1.212436             0.042975
C            -2.800000            -2.424871             0.058300
C            -1.400000            -2.424871             0.022343
H            -3.350000             0.952628             0.029434
C            -0.700000            -3.637307             0.005933
C             0.700000            -3.637307             0.038441
C             1.400000            -4.849742             0.006506
C             2.800000            -4.849742             0.074066
C             3.500000            -6.062178             0.000305
C             4.900000            -6.062178             0.032619
C             5.600000            -7.274613             0.067588
C             7.000000            -7.274613             0.008051
C             7.700000            -8.487049             0.072091
C             9.100000            -8.487049             0.094214
C             9.800000            -9.699485             0.055558
C            11.200000            -9.699485             0.037925
H            11.750000           -10.652112             0.003405
C            -4.900000            -1.212436             0.059548
C            -5.600000            -2.424871             0.036903
C            -4.900000            -3.637307             0.097899
C            -3.500000            -3.637307             0.040575
H            -5.450000            -0.259808             0.052048
C            -2.800000            -4.849742             0.031820
C            -1.400000            -4.849742             0.097684
C            -0.700000            -6.062178             0.055573
C             0.700000            -6.062178             0.036783
C             1.400000            -7.274613             0.041305
C             2.800000            -7.274613             0.049011
C             3.500000            -8.487049             0.002288
C             4.900000            -8.487049             0.020806
C             5.600000            -9.699485             0.090279
C             7.000000            -9.699485             0.024080
C             7.700000           -10.911920             0.009574
C             9.100000           -10.911920             0.019847
H             9.650000           -11.864548             0.084802
C            -7.000000            -2.424871             0.078874
C            -7.700000            -3.637307             0.072991
C            -7.000000            -4.849742             0.016855
C            -5.600000            -4.849742             0.025212
H            -7.550000            -1.472243             0.026692
C            -4.900000            -6.062178             0.027477
C            -3.500000            -6.062178             0.094356
C            -2.800000            -7.274613             0.002964
C            -1.400000            -7.274613             0.086567
C            -0.700000            -8.487049             0.041098
C             0.700000            -8.487049             0.091800
C             1.400000            -9.699485             0.028833
C             2.800000            -9.699485             0.044121
C             3.500000           -10.911920             0.021533
C             4.900000           -10.911920             0.020207
C             5.600000           -12.124356             0.016117
C             7.000000           -12.124356             0.063064
H             7.550000           -13.076984             0.015513
C            -9.100000            -3.637307             0.065294
C            -9.800000            -4.849742             0.099398
C            -9.100000            -6.062178             0.082421
C            -7.700000            -6.062178             0.038369
H            -9.650000            -2.684679             0.031029
H           -10.900000            -4.849742             0.062685
H            -9.650000            -7.014806             0.066543
C            -7.000000            -7.274613             0.068468
C            -5.600000            -7.274613             0.054608
H            -7.550000            -8.227241             0.006395
C            -4.900000            -8.487049             0.087805
C            -3.500000            -8.487049             0.031470
H            -5.450000            -9.439677             0.015646
C            -2.800000            -9.699485             0.066030
C            -1.400000            -9.699485             0.023641
H            -3.350000           -10.652112             0.039263
C            -0.700000           -10.911920             0.013469
C             0.700000           -10.911920             0.056140
H            -1.250000           -11.864548             0.098042
C             1.400000           -12.124356             0.078329
C             2.800000           -12.124356             0.093972
H             0.850000           -13.076984             0.057554
C             3.500000           -13.336791             0.069289
C             4.900000           -13.336791             0.038430
H             2.950000           -14.289419             0.034232
H             5.450000           -14.289419             0.044768
