120
isomero_12_19
C             0.700000             1.212436             0.026779
C            -0.700000             1.212436             0.034646
C            -1.400000             0.000000             0.091642
C            -0.700000            -1.212436             0.047743
C             0.700000            -1.212436             0.008904
C             1.400000            -0.000000             0.059815
H             1.250000             2.165064             0.081100
H            -1.250000             2.165064             0.070302
C             2.800000             0.000000             0.070675
C             1.400000            -2.424871             0.073761
C             2.800000            -2.424871             0.015567
C             3.500000            -1.212436             0.038791
H             3.350000             0.952628             0.051584
C             4.900000            -1.212436             0.079965
C             3.500000            -3.637307             0.011330
C             4.900000            -3.637307             0.050907
C             5.600000            -2.424871             0.046346
H             5.450000            -0.259808             0.047659
C             7.000000            -2.424871             0.087543
C             5.600000            -4.849742             0.059968
C             7.000000            -4.849742             0.019224
C             7.700000            -3.637307             0.095877
H             7.550000            -1.472243             0.092293
C             9.100000            -3.637307             0.070138
C             7.700000            -6.062178             0.068204
C             9.100000            -6.062178             0.092270
C             9.800000            -4.849742             0.028540
H             9.650000            -2.684679             0.090906
C            11.200000            -4.849742             0.039008
C             9.800000            -7.274613             0.083099
C            11.200000            -7.274613             0.008918
C            11.900000            -6.062178             0.062003
H            11.750000            -3.897114             0.049019
C            13.300000            -6.062178             0.077961
C            11.900000            -8.487049             0.012631
C            13.300000            -8.487049             0.069976
C            14.000000            -7.274613             0.032452
H            13.850000            -5.109550             0.099265
H            13.850000            -9.439677             0.057888
H            15.100000            -7.274613             0.064240
C            -2.800000             0.000000             0.095619
C            -3.500000            -1.212436             0.089116
C            -2.800000            -2.424871             0.085098
C            -1.400000            -2.424871             0.095664
H            -3.350000             0.952628             0.096473
C            -0.700000            -3.637307             0.036686
C             0.700000            -3.637307             0.062857
C             1.400000            -4.849742             0.081817
C             2.800000            -4.849742             0.070298
C             3.500000            -6.062178             0.039690
C             4.900000            -6.062178             0.091815
C             5.600000            -7.274613             0.060558
C             7.000000            -7.274613             0.015516
C             7.700000            -8.487049             0.052907
C             9.100000            -8.487049             0.041401
C             9.800000            -9.699485             0.055191
C            11.200000            -9.699485             0.090879
H            11.750000           -10.652112             0.012167
B            -4.900000            -1.212436             0.008421
N            -5.600000            -2.424871             0.092736
C            -4.900000            -3.637307             0.035365
C            -3.500000            -3.637307             0.046214
H            -5.450000            -0.259808             0.067358
C            -2.800000            -4.849742             0.084622
C            -1.400000            -4.849742             0.036681
C            -0.700000            -6.062178             0.058567
C             0.700000            -6.062178             0.017852
C             1.400000            -7.274613             0.088631
C             2.800000            -7.274613             0.009182
C             3.500000            -8.487049             0.049376
C             4.900000            -8.487049             0.030471
C             5.600000            -9.699485             0.011316
C             7.000000            -9.699485             0.042555
C             7.700000           -10.911920             0.026283
C             9.100000           -10.911920             0.062779
H             9.650000           -11.864548             0.083018
C            -7.000000            -2.424871             0.020140
C            -7.700000            -3.637307             0.062436
C            -7.000000            -4.849742             0.003702
C            -5.600000            -4.849742             0.098866
H            -7.550000            -1.472243             0.085932
C            -4.900000            -6.062178             0.008965
C            -3.500000            -6.062178             0.004663
C            -2.800000            -7.274613             0.012626
C            -1.400000            -7.274613             0.096315
C            -0.700000            -8.487049             0.008994
C             0.700000            -8.487049             0.009811
C             1.400000            -9.699485             0.093116
C             2.800000            -9.699485             0.009560
C             3.500000           -10.911920             0.057527
C             4.900000           -10.911920             0.034489
C             5.600000           -12.124356             0.060735
C             7.000000           -12.124356             0.017414
H             7.550000           -13.076984             0.015744
C            -9.100000            -3.637307             0.084160
C            -9.800000            -4.849742             0.098882
C            -9.100000            -6.062178             0.008312
C            -7.700000            -6.062178             0.050719
H            -9.650000            -2.684679             0.021414
H           -10.900000            -4.849742             0.088339
H            -9.650000            -7.014806             0.017619
C            -7.000000            -7.274613             0.038190
C            -5.600000            -7.274613             0.071463
H            -7.550000            -8.227241             0.039010
C            -4.900000            -8.487049             0.039598
C            -3.500000            -8.487049             0.087385
H            -5.450000            -9.439677             0.003140
C            -2.800000            -9.699485             0.046120
C            -1.400000            -9.699485             0.079693
H            -3.350000           -10.652112             0.034683
C            -0.700000           -10.911920             0.030444
C             0.700000           -10.911920             0.019512
H            -1.250000           -11.864548             0.082764
C             1.400000           -12.124356             0.035566
C             2.800000           -12.124356             0.033871
H             0.850000           -13.076984             0.066974
C             3.500000           -13.336791             0.043751
C             4.900000           -13.336791             0.087892
H             2.950000           -14.289419             0.089282
H             5.450000           -14.289419             0.074068
