120
isomero_22_21
C             0.700000             1.212436             0.052352
C            -0.700000             1.212436             0.090335
C            -1.400000             0.000000             0.063723
C            -0.700000            -1.212436             0.034287
C             0.700000            -1.212436             0.056434
C             1.400000            -0.000000             0.054283
H             1.250000             2.165064             0.032181
H            -1.250000             2.165064             0.051021
C             2.800000             0.000000             0.088173
C             1.400000            -2.424871             0.088671
C             2.800000            -2.424871             0.057465
C             3.500000            -1.212436             0.066166
H             3.350000             0.952628             0.000514
C             4.900000            -1.212436             0.089912
C             3.500000            -3.637307             0.078879
C             4.900000            -3.637307             0.007737
C             5.600000            -2.424871             0.028136
H             5.450000            -0.259808             0.071333
C             7.000000            -2.424871             0.005664
C             5.600000            -4.849742             0.035074
C             7.000000            -4.849742             0.050297
B             7.700000            -3.637307             0.089742
H             7.550000            -1.472243             0.055779
N             9.100000            -3.637307             0.099332
C             7.700000            -6.062178             0.050290
C             9.100000            -6.062178             0.082319
C             9.800000            -4.849742             0.030222
H             9.650000            -2.684679             0.090188
C            11.200000            -4.849742             0.090942
C             9.800000            -7.274613             0.027742
C            11.200000            -7.274613             0.075265
C            11.900000            -6.062178             0.022504
H            11.750000            -3.897114             0.058335
C            13.300000            -6.062178             0.043120
C            11.900000            -8.487049             0.011614
C            13.300000            -8.487049             0.057995
C            14.000000            -7.274613             0.069203
H            13.850000            -5.109550             0.010834
H            13.850000            -9.439677             0.092727
H            15.100000            -7.274613             0.053871
C            -2.800000             0.000000             0.073082
C            -3.500000            -1.212436             0.076503
C            -2.800000            -2.424871             0.087047
C            -1.400000            -2.424871             0.038799
H            -3.350000             0.952628             0.015911
C            -0.700000            -3.637307             0.065865
C             0.700000            -3.637307             0.064242
C             1.400000            -4.849742             0.028756
C             2.800000            -4.849742             0.000318
C             3.500000            -6.062178             0.081802
C             4.900000            -6.062178             0.053680
C             5.600000            -7.274613             0.049075
C             7.000000            -7.274613             0.055841
C             7.700000            -8.487049             0.036812
C             9.100000            -8.487049             0.040518
C             9.800000            -9.699485             0.072208
C            11.200000            -9.699485             0.090810
H            11.750000           -10.652112             0.079356
C            -4.900000            -1.212436             0.030939
C            -5.600000            -2.424871             0.014020
C            -4.900000            -3.637307             0.041273
C            -3.500000            -3.637307             0.041902
H            -5.450000            -0.259808             0.027083
C            -2.800000            -4.849742             0.034309
C            -1.400000            -4.849742             0.074739
C            -0.700000            -6.062178             0.013260
C             0.700000            -6.062178             0.083047
C             1.400000            -7.274613             0.019231
C             2.800000            -7.274613             0.048813
C             3.500000            -8.487049             0.021390
C             4.900000            -8.487049             0.055432
C             5.600000            -9.699485             0.046744
C             7.000000            -9.699485             0.019749
C             7.700000           -10.911920             0.005871
C             9.100000           -10.911920             0.022282
H             9.650000           -11.864548             0.020944
C            -7.000000            -2.424871             0.008757
C            -7.700000            -3.637307             0.017205
C            -7.000000            -4.849742             0.045973
C            -5.600000            -4.849742             0.040909
H            -7.550000            -1.472243             0.099800
C            -4.900000            -6.062178             0.066359
C            -3.500000            -6.062178             0.084031
C            -2.800000            -7.274613             0.076945
C            -1.400000            -7.274613             0.078823
C            -0.700000            -8.487049             0.028630
C             0.700000            -8.487049             0.095205
C             1.400000            -9.699485             0.093256
C             2.800000            -9.699485             0.037801
C             3.500000           -10.911920             0.012701
C             4.900000           -10.911920             0.067688
C             5.600000           -12.124356             0.030473
C             7.000000           -12.124356             0.008493
H             7.550000           -13.076984             0.022725
C            -9.100000            -3.637307             0.096754
C            -9.800000            -4.849742             0.043449
C            -9.100000            -6.062178             0.079510
C            -7.700000            -6.062178             0.005103
H            -9.650000            -2.684679             0.037308
H           -10.900000            -4.849742             0.030765
H            -9.650000            -7.014806             0.007956
C            -7.000000            -7.274613             0.088364
C            -5.600000            -7.274613             0.022752
H            -7.550000            -8.227241             0.024942
C            -4.900000            -8.487049             0.033309
C            -3.500000            -8.487049             0.069328
H            -5.450000            -9.439677             0.034279
C            -2.800000            -9.699485             0.087842
C            -1.400000            -9.699485             0.072698
H            -3.350000           -10.652112             0.065621
C            -0.700000           -10.911920             0.008770
C             0.700000           -10.911920             0.098896
H            -1.250000           -11.864548             0.058671
C             1.400000           -12.124356             0.015928
C             2.800000           -12.124356             0.075590
H             0.850000           -13.076984             0.010036
C             3.500000           -13.336791             0.053102
C             4.900000           -13.336791             0.091109
H             2.950000           -14.289419             0.057484
H             5.450000           -14.289419             0.098360
