120
isomero_14_7
C             0.700000             1.212436             0.058198
C            -0.700000             1.212436             0.014556
C            -1.400000             0.000000             0.042052
C            -0.700000            -1.212436             0.083974
C             0.700000            -1.212436             0.005573
C             1.400000            -0.000000             0.030798
H             1.250000             2.165064             0.055943
H            -1.250000             2.165064             0.010032
C             2.800000             0.000000             0.030161
C             1.400000            -2.424871             0.025781
C             2.800000            -2.424871             0.057064
C             3.500000            -1.212436             0.090176
H             3.350000             0.952628             0.078918
N             4.900000            -1.212436             0.095896
C             3.500000            -3.637307             0.070922
C             4.900000            -3.637307             0.051922
B             5.600000            -2.424871             0.018193
H             5.450000            -0.259808             0.066036
C             7.000000            -2.424871             0.099934
C             5.600000            -4.849742             0.009875
C             7.000000            -4.849742             0.082021
C             7.700000            -3.637307             0.054197
H             7.550000            -1.472243             0.046286
C             9.100000            -3.637307             0.064073
C             7.700000            -6.062178             0.052129
C             9.100000            -6.062178             0.096201
C             9.800000            -4.849742             0.089113
H             9.650000            -2.684679             0.056930
C            11.200000            -4.849742             0.050423
C             9.800000            -7.274613             0.023479
C            11.200000            -7.274613             0.030316
C            11.900000            -6.062178             0.045633
H            11.750000            -3.897114             0.024009
C            13.300000            -6.062178             0.050183
C            11.900000            -8.487049             0.003574
C            13.300000            -8.487049             0.091770
C            14.000000            -7.274613             0.082085
H            13.850000            -5.109550             0.037168
H            13.850000            -9.439677             0.042340
H            15.100000            -7.274613             0.097918
C            -2.800000             0.000000             0.046464
C            -3.500000            -1.212436             0.004928
C            -2.800000            -2.424871             0.022257
C            -1.400000            -2.424871             0.040996
H            -3.350000             0.952628             0.001863
C            -0.700000            -3.637307             0.085083
C             0.700000            -3.637307             0.027055
C             1.400000            -4.849742             0.013567
C             2.800000            -4.849742             0.088077
C             3.500000            -6.062178             0.033615
C             4.900000            -6.062178             0.061190
C             5.600000            -7.274613             0.002384
C             7.000000            -7.274613             0.080240
C             7.700000            -8.487049             0.061129
C             9.100000            -8.487049             0.030699
C             9.800000            -9.699485             0.008543
C            11.200000            -9.699485             0.004264
H            11.750000           -10.652112             0.086567
C            -4.900000            -1.212436             0.064467
C            -5.600000            -2.424871             0.019079
C            -4.900000            -3.637307             0.040693
C            -3.500000            -3.637307             0.058577
H            -5.450000            -0.259808             0.007352
C            -2.800000            -4.849742             0.087007
C            -1.400000            -4.849742             0.049434
C            -0.700000            -6.062178             0.022724
C             0.700000            -6.062178             0.092089
C             1.400000            -7.274613             0.006305
C             2.800000            -7.274613             0.092546
C             3.500000            -8.487049             0.022583
C             4.900000            -8.487049             0.091046
C             5.600000            -9.699485             0.056411
C             7.000000            -9.699485             0.036713
C             7.700000           -10.911920             0.026598
C             9.100000           -10.911920             0.028179
H             9.650000           -11.864548             0.091652
C            -7.000000            -2.424871             0.074343
C            -7.700000            -3.637307             0.004689
C            -7.000000            -4.849742             0.083853
C            -5.600000            -4.849742             0.094896
H            -7.550000            -1.472243             0.030157
C            -4.900000            -6.062178             0.040829
C            -3.500000            -6.062178             0.096784
C            -2.800000            -7.274613             0.020998
C            -1.400000            -7.274613             0.037238
C            -0.700000            -8.487049             0.028675
C             0.700000            -8.487049             0.099364
C             1.400000            -9.699485             0.041809
C             2.800000            -9.699485             0.013353
C             3.500000           -10.911920             0.003299
C             4.900000           -10.911920             0.088245
C             5.600000           -12.124356             0.067568
C             7.000000           -12.124356             0.071899
H             7.550000           -13.076984             0.046135
C            -9.100000            -3.637307             0.082629
C            -9.800000            -4.849742             0.015687
C            -9.100000            -6.062178             0.021502
C            -7.700000            -6.062178             0.013221
H            -9.650000            -2.684679             0.029698
H           -10.900000            -4.849742             0.092429
H            -9.650000            -7.014806             0.083167
C            -7.000000            -7.274613             0.068306
C            -5.600000            -7.274613             0.033031
H            -7.550000            -8.227241             0.070155
C            -4.900000            -8.487049             0.016343
C            -3.500000            -8.487049             0.069315
H            -5.450000            -9.439677             0.067553
C            -2.800000            -9.699485             0.071132
C            -1.400000            -9.699485             0.002583
H            -3.350000           -10.652112             0.011163
C            -0.700000           -10.911920             0.080293
C             0.700000           -10.911920             0.084076
H            -1.250000           -11.864548             0.082117
C             1.400000           -12.124356             0.067815
C             2.800000           -12.124356             0.085626
H             0.850000           -13.076984             0.080093
C             3.500000           -13.336791             0.072961
C             4.900000           -13.336791             0.074078
H             2.950000           -14.289419             0.005849
H             5.450000           -14.289419             0.010988
