120
isomero_36_25
C             0.700000             1.212436             0.091878
C            -0.700000             1.212436             0.055984
C            -1.400000             0.000000             0.058422
C            -0.700000            -1.212436             0.012297
C             0.700000            -1.212436             0.029456
C             1.400000            -0.000000             0.098965
H             1.250000             2.165064             0.022913
H            -1.250000             2.165064             0.039561
C             2.800000             0.000000             0.029510
C             1.400000            -2.424871             0.058548
C             2.800000            -2.424871             0.028133
C             3.500000            -1.212436             0.023798
H             3.350000             0.952628             0.092967
C             4.900000            -1.212436             0.034752
C             3.500000            -3.637307             0.071329
C             4.900000            -3.637307             0.063470
C             5.600000            -2.424871             0.051045
H             5.450000            -0.259808             0.050347
C             7.000000            -2.424871             0.037317
C             5.600000            -4.849742             0.037583
C             7.000000            -4.849742             0.020746
C             7.700000            -3.637307             0.051761
H             7.550000            -1.472243             0.092355
C             9.100000            -3.637307             0.026311
C             7.700000            -6.062178             0.005948
C             9.100000            -6.062178             0.016956
C             9.800000            -4.849742             0.048203
H             9.650000            -2.684679             0.063926
C            11.200000            -4.849742             0.070532
C             9.800000            -7.274613             0.054779
C            11.200000            -7.274613             0.000066
C            11.900000            -6.062178             0.048360
H            11.750000            -3.897114             0.096771
C            13.300000            -6.062178             0.016156
C            11.900000            -8.487049             0.057732
C            13.300000            -8.487049             0.018417
C            14.000000            -7.274613             0.056568
H            13.850000            -5.109550             0.032394
H            13.850000            -9.439677             0.016241
H            15.100000            -7.274613             0.063495
C            -2.800000             0.000000             0.078982
C            -3.500000            -1.212436             0.059671
C            -2.800000            -2.424871             0.066771
C            -1.400000            -2.424871             0.054575
H            -3.350000             0.952628             0.060896
C            -0.700000            -3.637307             0.035307
N             0.700000            -3.637307             0.061546
B             1.400000            -4.849742             0.093673
C             2.800000            -4.849742             0.051431
C             3.500000            -6.062178             0.081551
C             4.900000            -6.062178             0.091461
C             5.600000            -7.274613             0.029473
C             7.000000            -7.274613             0.037025
C             7.700000            -8.487049             0.081195
C             9.100000            -8.487049             0.006277
C             9.800000            -9.699485             0.080365
C            11.200000            -9.699485             0.057833
H            11.750000           -10.652112             0.005191
C            -4.900000            -1.212436             0.014933
C            -5.600000            -2.424871             0.055650
C            -4.900000            -3.637307             0.013962
C            -3.500000            -3.637307             0.035429
H            -5.450000            -0.259808             0.036769
C            -2.800000            -4.849742             0.093136
C            -1.400000            -4.849742             0.022730
C            -0.700000            -6.062178             0.091233
C             0.700000            -6.062178             0.027450
C             1.400000            -7.274613             0.085365
C             2.800000            -7.274613             0.082975
C             3.500000            -8.487049             0.094706
C             4.900000            -8.487049             0.003254
C             5.600000            -9.699485             0.055890
C             7.000000            -9.699485             0.017360
C             7.700000           -10.911920             0.049075
C             9.100000           -10.911920             0.011870
H             9.650000           -11.864548             0.009603
C            -7.000000            -2.424871             0.008872
C            -7.700000            -3.637307             0.017548
C            -7.000000            -4.849742             0.081035
C            -5.600000            -4.849742             0.068152
H            -7.550000            -1.472243             0.023448
C            -4.900000            -6.062178             0.031334
C            -3.500000            -6.062178             0.003363
C            -2.800000            -7.274613             0.043243
C            -1.400000            -7.274613             0.094326
C            -0.700000            -8.487049             0.082715
C             0.700000            -8.487049             0.073495
C             1.400000            -9.699485             0.048487
C             2.800000            -9.699485             0.035550
C             3.500000           -10.911920             0.059207
C             4.900000           -10.911920             0.096924
C             5.600000           -12.124356             0.022861
C             7.000000           -12.124356             0.035804
H             7.550000           -13.076984             0.063407
C            -9.100000            -3.637307             0.014730
C            -9.800000            -4.849742             0.087123
C            -9.100000            -6.062178             0.034333
C            -7.700000            -6.062178             0.042391
H            -9.650000            -2.684679             0.079736
H           -10.900000            -4.849742             0.041688
H            -9.650000            -7.014806             0.081055
C            -7.000000            -7.274613             0.002499
C            -5.600000            -7.274613             0.051894
H            -7.550000            -8.227241             0.000480
C            -4.900000            -8.487049             0.034492
C            -3.500000            -8.487049             0.067724
H            -5.450000            -9.439677             0.029619
C            -2.800000            -9.699485             0.004197
C            -1.400000            -9.699485             0.094767
H            -3.350000           -10.652112             0.058613
C            -0.700000           -10.911920             0.039924
C             0.700000           -10.911920             0.082636
H            -1.250000           -11.864548             0.078374
C             1.400000           -12.124356             0.093023
C             2.800000           -12.124356             0.003571
H             0.850000           -13.076984             0.086428
C             3.500000           -13.336791             0.083585
C             4.900000           -13.336791             0.039618
H             2.950000           -14.289419             0.047442
H             5.450000           -14.289419             0.006442
