120
isomero_37_49
C             0.700000             1.212436             0.092702
C            -0.700000             1.212436             0.081366
C            -1.400000             0.000000             0.054727
C            -0.700000            -1.212436             0.076746
C             0.700000            -1.212436             0.056187
C             1.400000            -0.000000             0.084012
H             1.250000             2.165064             0.011474
H            -1.250000             2.165064             0.041542
C             2.800000             0.000000             0.059806
C             1.400000            -2.424871             0.074022
C             2.800000            -2.424871             0.024561
C             3.500000            -1.212436             0.070702
H             3.350000             0.952628             0.072815
C             4.900000            -1.212436             0.069724
C             3.500000            -3.637307             0.058940
C             4.900000            -3.637307             0.047628
C             5.600000            -2.424871             0.024251
H             5.450000            -0.259808             0.051147
C             7.000000            -2.424871             0.019956
C             5.600000            -4.849742             0.034831
C             7.000000            -4.849742             0.031569
C             7.700000            -3.637307             0.054120
H             7.550000            -1.472243             0.044011
C             9.100000            -3.637307             0.074487
C             7.700000            -6.062178             0.057874
C             9.100000            -6.062178             0.046772
C             9.800000            -4.849742             0.075000
H             9.650000            -2.684679             0.051581
C            11.200000            -4.849742             0.078845
C             9.800000            -7.274613             0.079299
C            11.200000            -7.274613             0.077318
C            11.900000            -6.062178             0.080683
H            11.750000            -3.897114             0.087145
C            13.300000            -6.062178             0.086997
C            11.900000            -8.487049             0.032584
C            13.300000            -8.487049             0.094921
C            14.000000            -7.274613             0.097754
H            13.850000            -5.109550             0.050526
H            13.850000            -9.439677             0.029704
H            15.100000            -7.274613             0.023437
C            -2.800000             0.000000             0.002627
C            -3.500000            -1.212436             0.091297
C            -2.800000            -2.424871             0.016799
C            -1.400000            -2.424871             0.094679
H            -3.350000             0.952628             0.056901
C            -0.700000            -3.637307             0.099695
C             0.700000            -3.637307             0.093219
C             1.400000            -4.849742             0.069460
C             2.800000            -4.849742             0.076523
C             3.500000            -6.062178             0.024312
C             4.900000            -6.062178             0.000426
C             5.600000            -7.274613             0.058230
C             7.000000            -7.274613             0.048470
C             7.700000            -8.487049             0.028138
C             9.100000            -8.487049             0.031688
C             9.800000            -9.699485             0.059957
C            11.200000            -9.699485             0.027830
H            11.750000           -10.652112             0.065336
C            -4.900000            -1.212436             0.043640
C            -5.600000            -2.424871             0.010321
C            -4.900000            -3.637307             0.085691
C            -3.500000            -3.637307             0.004978
H            -5.450000            -0.259808             0.013494
C            -2.800000            -4.849742             0.003655
B            -1.400000            -4.849742             0.051001
N            -0.700000            -6.062178             0.012798
C             0.700000            -6.062178             0.020828
C             1.400000            -7.274613             0.014537
C             2.800000            -7.274613             0.031264
C             3.500000            -8.487049             0.079916
C             4.900000            -8.487049             0.033760
C             5.600000            -9.699485             0.001827
C             7.000000            -9.699485             0.019619
C             7.700000           -10.911920             0.045739
C             9.100000           -10.911920             0.044477
H             9.650000           -11.864548             0.038258
C            -7.000000            -2.424871             0.036616
C            -7.700000            -3.637307             0.058307
C            -7.000000            -4.849742             0.092926
C            -5.600000            -4.849742             0.099743
H            -7.550000            -1.472243             0.048018
C            -4.900000            -6.062178             0.022351
C            -3.500000            -6.062178             0.094232
C            -2.800000            -7.274613             0.050426
C            -1.400000            -7.274613             0.078677
C            -0.700000            -8.487049             0.099936
C             0.700000            -8.487049             0.049917
C             1.400000            -9.699485             0.003336
C             2.800000            -9.699485             0.007454
C             3.500000           -10.911920             0.064121
C             4.900000           -10.911920             0.078866
C             5.600000           -12.124356             0.076606
C             7.000000           -12.124356             0.086246
H             7.550000           -13.076984             0.014084
C            -9.100000            -3.637307             0.055376
C            -9.800000            -4.849742             0.045208
C            -9.100000            -6.062178             0.028959
C            -7.700000            -6.062178             0.095702
H            -9.650000            -2.684679             0.086609
H           -10.900000            -4.849742             0.029703
H            -9.650000            -7.014806             0.025822
C            -7.000000            -7.274613             0.041179
C            -5.600000            -7.274613             0.040217
H            -7.550000            -8.227241             0.022687
C            -4.900000            -8.487049             0.080602
C            -3.500000            -8.487049             0.084630
H            -5.450000            -9.439677             0.084395
C            -2.800000            -9.699485             0.019043
C            -1.400000            -9.699485             0.014540
H            -3.350000           -10.652112             0.058047
C            -0.700000           -10.911920             0.037030
C             0.700000           -10.911920             0.058084
H            -1.250000           -11.864548             0.006155
C             1.400000           -12.124356             0.001607
C             2.800000           -12.124356             0.094080
H             0.850000           -13.076984             0.035769
C             3.500000           -13.336791             0.008971
C             4.900000           -13.336791             0.069916
H             2.950000           -14.289419             0.073386
H             5.450000           -14.289419             0.038379
