120
isomero_31_43
C             0.700000             1.212436             0.035231
C            -0.700000             1.212436             0.075535
C            -1.400000             0.000000             0.030333
C            -0.700000            -1.212436             0.077991
C             0.700000            -1.212436             0.071624
C             1.400000            -0.000000             0.032834
H             1.250000             2.165064             0.077253
H            -1.250000             2.165064             0.012768
C             2.800000             0.000000             0.057604
C             1.400000            -2.424871             0.035575
C             2.800000            -2.424871             0.071770
C             3.500000            -1.212436             0.066806
H             3.350000             0.952628             0.012290
C             4.900000            -1.212436             0.064377
C             3.500000            -3.637307             0.054508
C             4.900000            -3.637307             0.003224
C             5.600000            -2.424871             0.003329
H             5.450000            -0.259808             0.045174
C             7.000000            -2.424871             0.061400
C             5.600000            -4.849742             0.029503
C             7.000000            -4.849742             0.038512
C             7.700000            -3.637307             0.011751
H             7.550000            -1.472243             0.062395
C             9.100000            -3.637307             0.047248
C             7.700000            -6.062178             0.093151
C             9.100000            -6.062178             0.098588
C             9.800000            -4.849742             0.049222
H             9.650000            -2.684679             0.093481
B            11.200000            -4.849742             0.078122
C             9.800000            -7.274613             0.024523
C            11.200000            -7.274613             0.062372
N            11.900000            -6.062178             0.009936
H            11.750000            -3.897114             0.027581
C            13.300000            -6.062178             0.096885
C            11.900000            -8.487049             0.041135
C            13.300000            -8.487049             0.074988
C            14.000000            -7.274613             0.074258
H            13.850000            -5.109550             0.002425
H            13.850000            -9.439677             0.026617
H            15.100000            -7.274613             0.022750
C            -2.800000             0.000000             0.032409
C            -3.500000            -1.212436             0.055821
C            -2.800000            -2.424871             0.045759
C            -1.400000            -2.424871             0.002420
H            -3.350000             0.952628             0.061430
C            -0.700000            -3.637307             0.046257
C             0.700000            -3.637307             0.056780
C             1.400000            -4.849742             0.011788
C             2.800000            -4.849742             0.029715
C             3.500000            -6.062178             0.051228
C             4.900000            -6.062178             0.035684
C             5.600000            -7.274613             0.019249
C             7.000000            -7.274613             0.069016
C             7.700000            -8.487049             0.021564
C             9.100000            -8.487049             0.024302
C             9.800000            -9.699485             0.072581
C            11.200000            -9.699485             0.097096
H            11.750000           -10.652112             0.007068
C            -4.900000            -1.212436             0.086469
C            -5.600000            -2.424871             0.029254
C            -4.900000            -3.637307             0.040690
C            -3.500000            -3.637307             0.080214
H            -5.450000            -0.259808             0.069907
C            -2.800000            -4.849742             0.040875
C            -1.400000            -4.849742             0.036868
C            -0.700000            -6.062178             0.079804
C             0.700000            -6.062178             0.089856
C             1.400000            -7.274613             0.049492
C             2.800000            -7.274613             0.090305
C             3.500000            -8.487049             0.032822
C             4.900000            -8.487049             0.098565
C             5.600000            -9.699485             0.092439
C             7.000000            -9.699485             0.094005
C             7.700000           -10.911920             0.012380
C             9.100000           -10.911920             0.047327
H             9.650000           -11.864548             0.067251
C            -7.000000            -2.424871             0.063329
C            -7.700000            -3.637307             0.042749
C            -7.000000            -4.849742             0.054989
C            -5.600000            -4.849742             0.096057
H            -7.550000            -1.472243             0.019145
C            -4.900000            -6.062178             0.045757
C            -3.500000            -6.062178             0.049596
C            -2.800000            -7.274613             0.020572
C            -1.400000            -7.274613             0.060657
C            -0.700000            -8.487049             0.005419
C             0.700000            -8.487049             0.071413
C             1.400000            -9.699485             0.051215
C             2.800000            -9.699485             0.020569
C             3.500000           -10.911920             0.094282
C             4.900000           -10.911920             0.032197
C             5.600000           -12.124356             0.026928
C             7.000000           -12.124356             0.007562
H             7.550000           -13.076984             0.027519
C            -9.100000            -3.637307             0.022270
C            -9.800000            -4.849742             0.072022
C            -9.100000            -6.062178             0.071224
C            -7.700000            -6.062178             0.001704
H            -9.650000            -2.684679             0.079369
H           -10.900000            -4.849742             0.055019
H            -9.650000            -7.014806             0.065012
C            -7.000000            -7.274613             0.072362
C            -5.600000            -7.274613             0.051788
H            -7.550000            -8.227241             0.096412
C            -4.900000            -8.487049             0.081557
C            -3.500000            -8.487049             0.091476
H            -5.450000            -9.439677             0.066802
C            -2.800000            -9.699485             0.078844
C            -1.400000            -9.699485             0.035904
H            -3.350000           -10.652112             0.061288
C            -0.700000           -10.911920             0.012958
C             0.700000           -10.911920             0.015241
H            -1.250000           -11.864548             0.040053
C             1.400000           -12.124356             0.011869
C             2.800000           -12.124356             0.005742
H             0.850000           -13.076984             0.016678
C             3.500000           -13.336791             0.081021
C             4.900000           -13.336791             0.015015
H             2.950000           -14.289419             0.053353
H             5.450000           -14.289419             0.027509
