120
isomero_21_22
C             0.700000             1.212436             0.005425
C            -0.700000             1.212436             0.092814
C            -1.400000             0.000000             0.006805
C            -0.700000            -1.212436             0.098367
C             0.700000            -1.212436             0.091553
C             1.400000            -0.000000             0.056041
H             1.250000             2.165064             0.068443
H            -1.250000             2.165064             0.049419
C             2.800000             0.000000             0.045453
C             1.400000            -2.424871             0.080778
C             2.800000            -2.424871             0.027791
C             3.500000            -1.212436             0.089043
H             3.350000             0.952628             0.034321
C             4.900000            -1.212436             0.016707
C             3.500000            -3.637307             0.000089
C             4.900000            -3.637307             0.085894
C             5.600000            -2.424871             0.076977
H             5.450000            -0.259808             0.031953
C             7.000000            -2.424871             0.061692
C             5.600000            -4.849742             0.035384
C             7.000000            -4.849742             0.044225
N             7.700000            -3.637307             0.095995
H             7.550000            -1.472243             0.002525
B             9.100000            -3.637307             0.014328
C             7.700000            -6.062178             0.054107
C             9.100000            -6.062178             0.045956
C             9.800000            -4.849742             0.087466
H             9.650000            -2.684679             0.017510
C            11.200000            -4.849742             0.037895
C             9.800000            -7.274613             0.063783
C            11.200000            -7.274613             0.034282
C            11.900000            -6.062178             0.094712
H            11.750000            -3.897114             0.073836
C            13.300000            -6.062178             0.083556
C            11.900000            -8.487049             0.092619
C            13.300000            -8.487049             0.050596
C            14.000000            -7.274613             0.018944
H            13.850000            -5.109550             0.041907
H            13.850000            -9.439677             0.073495
H            15.100000            -7.274613             0.051445
C            -2.800000             0.000000             0.027213
C            -3.500000            -1.212436             0.079795
C            -2.800000            -2.424871             0.001411
C            -1.400000            -2.424871             0.050740
H            -3.350000             0.952628             0.037922
C            -0.700000            -3.637307             0.085503
C             0.700000            -3.637307             0.050693
C             1.400000            -4.849742             0.092121
C             2.800000            -4.849742             0.001497
C             3.500000            -6.062178             0.001276
C             4.900000            -6.062178             0.028662
C             5.600000            -7.274613             0.014527
C             7.000000            -7.274613             0.068757
C             7.700000            -8.487049             0.062098
C             9.100000            -8.487049             0.064946
C             9.800000            -9.699485             0.024853
C            11.200000            -9.699485             0.086964
H            11.750000           -10.652112             0.056733
C            -4.900000            -1.212436             0.086623
C            -5.600000            -2.424871             0.091363
C            -4.900000            -3.637307             0.043169
C            -3.500000            -3.637307             0.007102
H            -5.450000            -0.259808             0.011541
C            -2.800000            -4.849742             0.083459
C            -1.400000            -4.849742             0.011557
C            -0.700000            -6.062178             0.030293
C             0.700000            -6.062178             0.025706
C             1.400000            -7.274613             0.074711
C             2.800000            -7.274613             0.049387
C             3.500000            -8.487049             0.041105
C             4.900000            -8.487049             0.015261
C             5.600000            -9.699485             0.035042
C             7.000000            -9.699485             0.071318
C             7.700000           -10.911920             0.006459
C             9.100000           -10.911920             0.095477
H             9.650000           -11.864548             0.089859
C            -7.000000            -2.424871             0.030151
C            -7.700000            -3.637307             0.098200
C            -7.000000            -4.849742             0.070880
C            -5.600000            -4.849742             0.005757
H            -7.550000            -1.472243             0.032398
C            -4.900000            -6.062178             0.066547
C            -3.500000            -6.062178             0.086934
C            -2.800000            -7.274613             0.067213
C            -1.400000            -7.274613             0.002485
C            -0.700000            -8.487049             0.084481
C             0.700000            -8.487049             0.015702
C             1.400000            -9.699485             0.042495
C             2.800000            -9.699485             0.066378
C             3.500000           -10.911920             0.064757
C             4.900000           -10.911920             0.052417
C             5.600000           -12.124356             0.086209
C             7.000000           -12.124356             0.095418
H             7.550000           -13.076984             0.089743
C            -9.100000            -3.637307             0.005800
C            -9.800000            -4.849742             0.098881
C            -9.100000            -6.062178             0.049426
C            -7.700000            -6.062178             0.027918
H            -9.650000            -2.684679             0.040527
H           -10.900000            -4.849742             0.050295
H            -9.650000            -7.014806             0.037641
C            -7.000000            -7.274613             0.068597
C            -5.600000            -7.274613             0.036474
H            -7.550000            -8.227241             0.072852
C            -4.900000            -8.487049             0.017974
C            -3.500000            -8.487049             0.040392
H            -5.450000            -9.439677             0.068627
C            -2.800000            -9.699485             0.037179
C            -1.400000            -9.699485             0.002950
H            -3.350000           -10.652112             0.083887
C            -0.700000           -10.911920             0.062320
C             0.700000           -10.911920             0.032996
H            -1.250000           -11.864548             0.013102
C             1.400000           -12.124356             0.030749
C             2.800000           -12.124356             0.046293
H             0.850000           -13.076984             0.039811
C             3.500000           -13.336791             0.063103
C             4.900000           -13.336791             0.072396
H             2.950000           -14.289419             0.023288
H             5.450000           -14.289419             0.008533
