120
isomero_47_59
C             0.700000             1.212436             0.022475
C            -0.700000             1.212436             0.060957
C            -1.400000             0.000000             0.033649
C            -0.700000            -1.212436             0.023584
C             0.700000            -1.212436             0.008823
C             1.400000            -0.000000             0.084093
H             1.250000             2.165064             0.079358
H            -1.250000             2.165064             0.008908
C             2.800000             0.000000             0.035541
C             1.400000            -2.424871             0.067977
C             2.800000            -2.424871             0.095494
C             3.500000            -1.212436             0.002597
H             3.350000             0.952628             0.061966
C             4.900000            -1.212436             0.076574
C             3.500000            -3.637307             0.046687
C             4.900000            -3.637307             0.030817
C             5.600000            -2.424871             0.073614
H             5.450000            -0.259808             0.053394
C             7.000000            -2.424871             0.015666
C             5.600000            -4.849742             0.075018
C             7.000000            -4.849742             0.006243
C             7.700000            -3.637307             0.011289
H             7.550000            -1.472243             0.027107
C             9.100000            -3.637307             0.087107
C             7.700000            -6.062178             0.089284
C             9.100000            -6.062178             0.033183
C             9.800000            -4.849742             0.005259
H             9.650000            -2.684679             0.068010
C            11.200000            -4.849742             0.069042
C             9.800000            -7.274613             0.088838
C            11.200000            -7.274613             0.041391
C            11.900000            -6.062178             0.051226
H            11.750000            -3.897114             0.085218
C            13.300000            -6.062178             0.046341
C            11.900000            -8.487049             0.033785
C            13.300000            -8.487049             0.054902
C            14.000000            -7.274613             0.058300
H            13.850000            -5.109550             0.052315
H            13.850000            -9.439677             0.013200
H            15.100000            -7.274613             0.000759
C            -2.800000             0.000000             0.037069
C            -3.500000            -1.212436             0.041162
C            -2.800000            -2.424871             0.098225
C            -1.400000            -2.424871             0.000359
H            -3.350000             0.952628             0.036593
C            -0.700000            -3.637307             0.015406
C             0.700000            -3.637307             0.004343
C             1.400000            -4.849742             0.008693
C             2.800000            -4.849742             0.028357
B             3.500000            -6.062178             0.012925
C             4.900000            -6.062178             0.036031
C             5.600000            -7.274613             0.090892
C             7.000000            -7.274613             0.063492
C             7.700000            -8.487049             0.021831
C             9.100000            -8.487049             0.075419
C             9.800000            -9.699485             0.023536
C            11.200000            -9.699485             0.035474
H            11.750000           -10.652112             0.024668
C            -4.900000            -1.212436             0.038842
C            -5.600000            -2.424871             0.088595
C            -4.900000            -3.637307             0.094139
C            -3.500000            -3.637307             0.013695
H            -5.450000            -0.259808             0.005193
C            -2.800000            -4.849742             0.004217
C            -1.400000            -4.849742             0.022443
C            -0.700000            -6.062178             0.095682
C             0.700000            -6.062178             0.043586
C             1.400000            -7.274613             0.075164
N             2.800000            -7.274613             0.052647
C             3.500000            -8.487049             0.029612
C             4.900000            -8.487049             0.045465
C             5.600000            -9.699485             0.090397
C             7.000000            -9.699485             0.044722
C             7.700000           -10.911920             0.009706
C             9.100000           -10.911920             0.097782
H             9.650000           -11.864548             0.087024
C            -7.000000            -2.424871             0.048765
C            -7.700000            -3.637307             0.032445
C            -7.000000            -4.849742             0.095219
C            -5.600000            -4.849742             0.047155
H            -7.550000            -1.472243             0.096944
C            -4.900000            -6.062178             0.074248
C            -3.500000            -6.062178             0.012628
C            -2.800000            -7.274613             0.011095
C            -1.400000            -7.274613             0.066484
C            -0.700000            -8.487049             0.007060
C             0.700000            -8.487049             0.051051
C             1.400000            -9.699485             0.030271
C             2.800000            -9.699485             0.082573
C             3.500000           -10.911920             0.099370
C             4.900000           -10.911920             0.063122
C             5.600000           -12.124356             0.008677
C             7.000000           -12.124356             0.017389
H             7.550000           -13.076984             0.035731
C            -9.100000            -3.637307             0.069143
C            -9.800000            -4.849742             0.053903
C            -9.100000            -6.062178             0.075117
C            -7.700000            -6.062178             0.022942
H            -9.650000            -2.684679             0.070238
H           -10.900000            -4.849742             0.089771
H            -9.650000            -7.014806             0.038867
C            -7.000000            -7.274613             0.006402
C            -5.600000            -7.274613             0.029888
H            -7.550000            -8.227241             0.054602
C            -4.900000            -8.487049             0.040342
C            -3.500000            -8.487049             0.078124
H            -5.450000            -9.439677             0.066733
C            -2.800000            -9.699485             0.001617
C            -1.400000            -9.699485             0.062690
H            -3.350000           -10.652112             0.005862
C            -0.700000           -10.911920             0.053020
C             0.700000           -10.911920             0.072296
H            -1.250000           -11.864548             0.045727
C             1.400000           -12.124356             0.029975
C             2.800000           -12.124356             0.025034
H             0.850000           -13.076984             0.012388
C             3.500000           -13.336791             0.030976
C             4.900000           -13.336791             0.013583
H             2.950000           -14.289419             0.065830
H             5.450000           -14.289419             0.051421
