120
isomero_34_46
C             0.700000             1.212436             0.062908
C            -0.700000             1.212436             0.025227
C            -1.400000             0.000000             0.041624
C            -0.700000            -1.212436             0.005824
C             0.700000            -1.212436             0.092961
C             1.400000            -0.000000             0.080419
H             1.250000             2.165064             0.043154
H            -1.250000             2.165064             0.099256
C             2.800000             0.000000             0.067361
C             1.400000            -2.424871             0.092041
C             2.800000            -2.424871             0.066037
C             3.500000            -1.212436             0.024736
H             3.350000             0.952628             0.074635
C             4.900000            -1.212436             0.070590
C             3.500000            -3.637307             0.049651
C             4.900000            -3.637307             0.076122
C             5.600000            -2.424871             0.052704
H             5.450000            -0.259808             0.008152
C             7.000000            -2.424871             0.020652
B             5.600000            -4.849742             0.056841
C             7.000000            -4.849742             0.000974
C             7.700000            -3.637307             0.072346
H             7.550000            -1.472243             0.099595
C             9.100000            -3.637307             0.091422
C             7.700000            -6.062178             0.083342
C             9.100000            -6.062178             0.005879
C             9.800000            -4.849742             0.076587
H             9.650000            -2.684679             0.032761
C            11.200000            -4.849742             0.008025
C             9.800000            -7.274613             0.070716
C            11.200000            -7.274613             0.025231
C            11.900000            -6.062178             0.067730
H            11.750000            -3.897114             0.081529
C            13.300000            -6.062178             0.032623
C            11.900000            -8.487049             0.038056
C            13.300000            -8.487049             0.040478
C            14.000000            -7.274613             0.043568
H            13.850000            -5.109550             0.028845
H            13.850000            -9.439677             0.023068
H            15.100000            -7.274613             0.021201
C            -2.800000             0.000000             0.077594
C            -3.500000            -1.212436             0.089931
C            -2.800000            -2.424871             0.072827
C            -1.400000            -2.424871             0.010764
H            -3.350000             0.952628             0.083505
C            -0.700000            -3.637307             0.076991
C             0.700000            -3.637307             0.084240
C             1.400000            -4.849742             0.013607
C             2.800000            -4.849742             0.036037
C             3.500000            -6.062178             0.053340
N             4.900000            -6.062178             0.078224
C             5.600000            -7.274613             0.088381
C             7.000000            -7.274613             0.037952
C             7.700000            -8.487049             0.043825
C             9.100000            -8.487049             0.003040
C             9.800000            -9.699485             0.091628
C            11.200000            -9.699485             0.057887
H            11.750000           -10.652112             0.073352
C            -4.900000            -1.212436             0.067032
C            -5.600000            -2.424871             0.000258
C            -4.900000            -3.637307             0.041042
C            -3.500000            -3.637307             0.098936
H            -5.450000            -0.259808             0.002418
C            -2.800000            -4.849742             0.021030
C            -1.400000            -4.849742             0.067895
C            -0.700000            -6.062178             0.055425
C             0.700000            -6.062178             0.056196
C             1.400000            -7.274613             0.042943
C             2.800000            -7.274613             0.019693
C             3.500000            -8.487049             0.039612
C             4.900000            -8.487049             0.062500
C             5.600000            -9.699485             0.039889
C             7.000000            -9.699485             0.067023
C             7.700000           -10.911920             0.024782
C             9.100000           -10.911920             0.086886
H             9.650000           -11.864548             0.051476
C            -7.000000            -2.424871             0.081963
C            -7.700000            -3.637307             0.071453
C            -7.000000            -4.849742             0.048128
C            -5.600000            -4.849742             0.075089
H            -7.550000            -1.472243             0.061025
C            -4.900000            -6.062178             0.096343
C            -3.500000            -6.062178             0.084748
C            -2.800000            -7.274613             0.030826
C            -1.400000            -7.274613             0.020282
C            -0.700000            -8.487049             0.033983
C             0.700000            -8.487049             0.065274
C             1.400000            -9.699485             0.057974
C             2.800000            -9.699485             0.071594
C             3.500000           -10.911920             0.011261
C             4.900000           -10.911920             0.088934
C             5.600000           -12.124356             0.070392
C             7.000000           -12.124356             0.083741
H             7.550000           -13.076984             0.019321
C            -9.100000            -3.637307             0.025748
C            -9.800000            -4.849742             0.003790
C            -9.100000            -6.062178             0.018912
C            -7.700000            -6.062178             0.054480
H            -9.650000            -2.684679             0.003019
H           -10.900000            -4.849742             0.081801
H            -9.650000            -7.014806             0.023195
C            -7.000000            -7.274613             0.021752
C            -5.600000            -7.274613             0.050283
H            -7.550000            -8.227241             0.038124
C            -4.900000            -8.487049             0.018106
C            -3.500000            -8.487049             0.054080
H            -5.450000            -9.439677             0.019977
C            -2.800000            -9.699485             0.000570
C            -1.400000            -9.699485             0.098548
H            -3.350000           -10.652112             0.039271
C            -0.700000           -10.911920             0.078452
C             0.700000           -10.911920             0.005369
H            -1.250000           -11.864548             0.048547
C             1.400000           -12.124356             0.055278
C             2.800000           -12.124356             0.021685
H             0.850000           -13.076984             0.057087
C             3.500000           -13.336791             0.069522
C             4.900000           -13.336791             0.088059
H             2.950000           -14.289419             0.005772
H             5.450000           -14.289419             0.067708
