120
isomero_4_1
N             0.700000             1.212436             0.050037
C            -0.700000             1.212436             0.034049
C            -1.400000             0.000000             0.054518
C            -0.700000            -1.212436             0.006251
C             0.700000            -1.212436             0.053512
B             1.400000            -0.000000             0.064753
H             1.250000             2.165064             0.053112
H            -1.250000             2.165064             0.029839
C             2.800000             0.000000             0.049396
C             1.400000            -2.424871             0.058552
C             2.800000            -2.424871             0.064903
C             3.500000            -1.212436             0.044890
H             3.350000             0.952628             0.010025
C             4.900000            -1.212436             0.040804
C             3.500000            -3.637307             0.009830
C             4.900000            -3.637307             0.078505
C             5.600000            -2.424871             0.039645
H             5.450000            -0.259808             0.019032
C             7.000000            -2.424871             0.057100
C             5.600000            -4.849742             0.096795
C             7.000000            -4.849742             0.022004
C             7.700000            -3.637307             0.030106
H             7.550000            -1.472243             0.000524
C             9.100000            -3.637307             0.096451
C             7.700000            -6.062178             0.017674
C             9.100000            -6.062178             0.058598
C             9.800000            -4.849742             0.012962
H             9.650000            -2.684679             0.062283
C            11.200000            -4.849742             0.028396
C             9.800000            -7.274613             0.067635
C            11.200000            -7.274613             0.055106
C            11.900000            -6.062178             0.037488
H            11.750000            -3.897114             0.062182
C            13.300000            -6.062178             0.079925
C            11.900000            -8.487049             0.052617
C            13.300000            -8.487049             0.055046
C            14.000000            -7.274613             0.090660
H            13.850000            -5.109550             0.050690
H            13.850000            -9.439677             0.003674
H            15.100000            -7.274613             0.034251
C            -2.800000             0.000000             0.027664
C            -3.500000            -1.212436             0.033737
C            -2.800000            -2.424871             0.003631
C            -1.400000            -2.424871             0.041312
H            -3.350000             0.952628             0.077205
C            -0.700000            -3.637307             0.051852
C             0.700000            -3.637307             0.096353
C             1.400000            -4.849742             0.071380
C             2.800000            -4.849742             0.022633
C             3.500000            -6.062178             0.058187
C             4.900000            -6.062178             0.052330
C             5.600000            -7.274613             0.072676
C             7.000000            -7.274613             0.042263
C             7.700000            -8.487049             0.030778
C             9.100000            -8.487049             0.004473
C             9.800000            -9.699485             0.065052
C            11.200000            -9.699485             0.068911
H            11.750000           -10.652112             0.096853
C            -4.900000            -1.212436             0.038334
C            -5.600000            -2.424871             0.063219
C            -4.900000            -3.637307             0.007722
C            -3.500000            -3.637307             0.096680
H            -5.450000            -0.259808             0.098427
C            -2.800000            -4.849742             0.078802
C            -1.400000            -4.849742             0.060982
C            -0.700000            -6.062178             0.075035
C             0.700000            -6.062178             0.059789
C             1.400000            -7.274613             0.021529
C             2.800000            -7.274613             0.014199
C             3.500000            -8.487049             0.063905
C             4.900000            -8.487049             0.067018
C             5.600000            -9.699485             0.095610
C             7.000000            -9.699485             0.003961
C             7.700000           -10.911920             0.018016
C             9.100000           -10.911920             0.097065
H             9.650000           -11.864548             0.082648
C            -7.000000            -2.424871             0.005563
C            -7.700000            -3.637307             0.001492
C            -7.000000            -4.849742             0.099162
C            -5.600000            -4.849742             0.074054
H            -7.550000            -1.472243             0.067008
C            -4.900000            -6.062178             0.079214
C            -3.500000            -6.062178             0.019080
C            -2.800000            -7.274613             0.070576
C            -1.400000            -7.274613             0.002500
C            -0.700000            -8.487049             0.095581
C             0.700000            -8.487049             0.036748
C             1.400000            -9.699485             0.000615
C             2.800000            -9.699485             0.051993
C             3.500000           -10.911920             0.005535
C             4.900000           -10.911920             0.084185
C             5.600000           -12.124356             0.071866
C             7.000000           -12.124356             0.092081
H             7.550000           -13.076984             0.095226
C            -9.100000            -3.637307             0.010376
C            -9.800000            -4.849742             0.019418
C            -9.100000            -6.062178             0.005795
C            -7.700000            -6.062178             0.054335
H            -9.650000            -2.684679             0.059593
H           -10.900000            -4.849742             0.011046
H            -9.650000            -7.014806             0.013189
C            -7.000000            -7.274613             0.025997
C            -5.600000            -7.274613             0.082609
H            -7.550000            -8.227241             0.038119
C            -4.900000            -8.487049             0.038979
C            -3.500000            -8.487049             0.029738
H            -5.450000            -9.439677             0.003563
C            -2.800000            -9.699485             0.045717
C            -1.400000            -9.699485             0.017305
H            -3.350000           -10.652112             0.029591
C            -0.700000           -10.911920             0.027935
C             0.700000           -10.911920             0.058490
H            -1.250000           -11.864548             0.007215
C             1.400000           -12.124356             0.060785
C             2.800000           -12.124356             0.098072
H             0.850000           -13.076984             0.032756
C             3.500000           -13.336791             0.075351
C             4.900000           -13.336791             0.008470
H             2.950000           -14.289419             0.056516
H             5.450000           -14.289419             0.088982
