120
isomero_14_23
C             0.700000             1.212436             0.037187
C            -0.700000             1.212436             0.078872
C            -1.400000             0.000000             0.065848
C            -0.700000            -1.212436             0.071373
C             0.700000            -1.212436             0.038297
C             1.400000            -0.000000             0.065020
H             1.250000             2.165064             0.071170
H            -1.250000             2.165064             0.095185
C             2.800000             0.000000             0.037563
C             1.400000            -2.424871             0.080623
C             2.800000            -2.424871             0.000664
C             3.500000            -1.212436             0.086306
H             3.350000             0.952628             0.012731
C             4.900000            -1.212436             0.006814
C             3.500000            -3.637307             0.079011
N             4.900000            -3.637307             0.096205
B             5.600000            -2.424871             0.085739
H             5.450000            -0.259808             0.097007
C             7.000000            -2.424871             0.099730
C             5.600000            -4.849742             0.068179
C             7.000000            -4.849742             0.000764
C             7.700000            -3.637307             0.085863
H             7.550000            -1.472243             0.026971
C             9.100000            -3.637307             0.020189
C             7.700000            -6.062178             0.040876
C             9.100000            -6.062178             0.075457
C             9.800000            -4.849742             0.051730
H             9.650000            -2.684679             0.093835
C            11.200000            -4.849742             0.006754
C             9.800000            -7.274613             0.010826
C            11.200000            -7.274613             0.021027
C            11.900000            -6.062178             0.068978
H            11.750000            -3.897114             0.036478
C            13.300000            -6.062178             0.032653
C            11.900000            -8.487049             0.021292
C            13.300000            -8.487049             0.066996
C            14.000000            -7.274613             0.087488
H            13.850000            -5.109550             0.019903
H            13.850000            -9.439677             0.056426
H            15.100000            -7.274613             0.011021
C            -2.800000             0.000000             0.037410
C            -3.500000            -1.212436             0.062469
C            -2.800000            -2.424871             0.023828
C            -1.400000            -2.424871             0.055511
H            -3.350000             0.952628             0.079699
C            -0.700000            -3.637307             0.066754
C             0.700000            -3.637307             0.091187
C             1.400000            -4.849742             0.007928
C             2.800000            -4.849742             0.080549
C             3.500000            -6.062178             0.047869
C             4.900000            -6.062178             0.031774
C             5.600000            -7.274613             0.072738
C             7.000000            -7.274613             0.024962
C             7.700000            -8.487049             0.022645
C             9.100000            -8.487049             0.070970
C             9.800000            -9.699485             0.099510
C            11.200000            -9.699485             0.089102
H            11.750000           -10.652112             0.090641
C            -4.900000            -1.212436             0.021614
C            -5.600000            -2.424871             0.054930
C            -4.900000            -3.637307             0.032439
C            -3.500000            -3.637307             0.084167
H            -5.450000            -0.259808             0.017768
C            -2.800000            -4.849742             0.027128
C            -1.400000            -4.849742             0.097457
C            -0.700000            -6.062178             0.097053
C             0.700000            -6.062178             0.016368
C             1.400000            -7.274613             0.034887
C             2.800000            -7.274613             0.074676
C             3.500000            -8.487049             0.029836
C             4.900000            -8.487049             0.060870
C             5.600000            -9.699485             0.086205
C             7.000000            -9.699485             0.028507
C             7.700000           -10.911920             0.073061
C             9.100000           -10.911920             0.027080
H             9.650000           -11.864548             0.078136
C            -7.000000            -2.424871             0.094015
C            -7.700000            -3.637307             0.033479
C            -7.000000            -4.849742             0.084035
C            -5.600000            -4.849742             0.017478
H            -7.550000            -1.472243             0.039979
C            -4.900000            -6.062178             0.001093
C            -3.500000            -6.062178             0.098755
C            -2.800000            -7.274613             0.028652
C            -1.400000            -7.274613             0.011129
C            -0.700000            -8.487049             0.094309
C             0.700000            -8.487049             0.010333
C             1.400000            -9.699485             0.007289
C             2.800000            -9.699485             0.064171
C             3.500000           -10.911920             0.021420
C             4.900000           -10.911920             0.069841
C             5.600000           -12.124356             0.013575
C             7.000000           -12.124356             0.027198
H             7.550000           -13.076984             0.048606
C            -9.100000            -3.637307             0.001009
C            -9.800000            -4.849742             0.001867
C            -9.100000            -6.062178             0.024205
C            -7.700000            -6.062178             0.025831
H            -9.650000            -2.684679             0.049437
H           -10.900000            -4.849742             0.013740
H            -9.650000            -7.014806             0.005108
C            -7.000000            -7.274613             0.092708
C            -5.600000            -7.274613             0.059290
H            -7.550000            -8.227241             0.094272
C            -4.900000            -8.487049             0.086347
C            -3.500000            -8.487049             0.064317
H            -5.450000            -9.439677             0.059344
C            -2.800000            -9.699485             0.091450
C            -1.400000            -9.699485             0.009864
H            -3.350000           -10.652112             0.085452
C            -0.700000           -10.911920             0.055901
C             0.700000           -10.911920             0.039673
H            -1.250000           -11.864548             0.016647
C             1.400000           -12.124356             0.007550
C             2.800000           -12.124356             0.091013
H             0.850000           -13.076984             0.047894
C             3.500000           -13.336791             0.044610
C             4.900000           -13.336791             0.031185
H             2.950000           -14.289419             0.039736
H             5.450000           -14.289419             0.039253
