120
isomero_3_8
C             0.700000             1.212436             0.030309
C            -0.700000             1.212436             0.016833
C            -1.400000             0.000000             0.007996
C            -0.700000            -1.212436             0.020860
C             0.700000            -1.212436             0.059379
C             1.400000            -0.000000             0.094105
H             1.250000             2.165064             0.004887
H            -1.250000             2.165064             0.016403
B             2.800000             0.000000             0.036104
C             1.400000            -2.424871             0.026956
C             2.800000            -2.424871             0.064044
N             3.500000            -1.212436             0.007756
H             3.350000             0.952628             0.065528
C             4.900000            -1.212436             0.060569
C             3.500000            -3.637307             0.041808
C             4.900000            -3.637307             0.048256
C             5.600000            -2.424871             0.033045
H             5.450000            -0.259808             0.059115
C             7.000000            -2.424871             0.098498
C             5.600000            -4.849742             0.048800
C             7.000000            -4.849742             0.014384
C             7.700000            -3.637307             0.028460
H             7.550000            -1.472243             0.082443
C             9.100000            -3.637307             0.085788
C             7.700000            -6.062178             0.028277
C             9.100000            -6.062178             0.044424
C             9.800000            -4.849742             0.043321
H             9.650000            -2.684679             0.020869
C            11.200000            -4.849742             0.092118
C             9.800000            -7.274613             0.012973
C            11.200000            -7.274613             0.053407
C            11.900000            -6.062178             0.060073
H            11.750000            -3.897114             0.032647
C            13.300000            -6.062178             0.076019
C            11.900000            -8.487049             0.054986
C            13.300000            -8.487049             0.065987
C            14.000000            -7.274613             0.032731
H            13.850000            -5.109550             0.055962
H            13.850000            -9.439677             0.018463
H            15.100000            -7.274613             0.069692
C            -2.800000             0.000000             0.020617
C            -3.500000            -1.212436             0.029560
C            -2.800000            -2.424871             0.066690
C            -1.400000            -2.424871             0.021564
H            -3.350000             0.952628             0.099481
C            -0.700000            -3.637307             0.082260
C             0.700000            -3.637307             0.093686
C             1.400000            -4.849742             0.023305
C             2.800000            -4.849742             0.060222
C             3.500000            -6.062178             0.087816
C             4.900000            -6.062178             0.023682
C             5.600000            -7.274613             0.014297
C             7.000000            -7.274613             0.069824
C             7.700000            -8.487049             0.084119
C             9.100000            -8.487049             0.036128
C             9.800000            -9.699485             0.005014
C            11.200000            -9.699485             0.037367
H            11.750000           -10.652112             0.008089
C            -4.900000            -1.212436             0.036807
C            -5.600000            -2.424871             0.065657
C            -4.900000            -3.637307             0.031851
C            -3.500000            -3.637307             0.064525
H            -5.450000            -0.259808             0.070043
C            -2.800000            -4.849742             0.091628
C            -1.400000            -4.849742             0.054637
C            -0.700000            -6.062178             0.040910
C             0.700000            -6.062178             0.026293
C             1.400000            -7.274613             0.014627
C             2.800000            -7.274613             0.099872
C             3.500000            -8.487049             0.018238
C             4.900000            -8.487049             0.096851
C             5.600000            -9.699485             0.089143
C             7.000000            -9.699485             0.053714
C             7.700000           -10.911920             0.091852
C             9.100000           -10.911920             0.054350
H             9.650000           -11.864548             0.097753
C            -7.000000            -2.424871             0.066667
C            -7.700000            -3.637307             0.066847
C            -7.000000            -4.849742             0.037274
C            -5.600000            -4.849742             0.090146
H            -7.550000            -1.472243             0.030282
C            -4.900000            -6.062178             0.033561
C            -3.500000            -6.062178             0.065100
C            -2.800000            -7.274613             0.037970
C            -1.400000            -7.274613             0.022642
C            -0.700000            -8.487049             0.086671
C             0.700000            -8.487049             0.061356
C             1.400000            -9.699485             0.016012
C             2.800000            -9.699485             0.072442
C             3.500000           -10.911920             0.061523
C             4.900000           -10.911920             0.066994
C             5.600000           -12.124356             0.069219
C             7.000000           -12.124356             0.080493
H             7.550000           -13.076984             0.084344
C            -9.100000            -3.637307             0.089191
C            -9.800000            -4.849742             0.008886
C            -9.100000            -6.062178             0.097879
C            -7.700000            -6.062178             0.003238
H            -9.650000            -2.684679             0.081044
H           -10.900000            -4.849742             0.034885
H            -9.650000            -7.014806             0.031461
C            -7.000000            -7.274613             0.051990
C            -5.600000            -7.274613             0.060756
H            -7.550000            -8.227241             0.050204
C            -4.900000            -8.487049             0.040842
C            -3.500000            -8.487049             0.003414
H            -5.450000            -9.439677             0.059942
C            -2.800000            -9.699485             0.058769
C            -1.400000            -9.699485             0.079343
H            -3.350000           -10.652112             0.056246
C            -0.700000           -10.911920             0.051779
C             0.700000           -10.911920             0.049282
H            -1.250000           -11.864548             0.052044
C             1.400000           -12.124356             0.065981
C             2.800000           -12.124356             0.029231
H             0.850000           -13.076984             0.094877
C             3.500000           -13.336791             0.054182
C             4.900000           -13.336791             0.043449
H             2.950000           -14.289419             0.048910
H             5.450000           -14.289419             0.062284
