120
isomero_35_24
C             0.700000             1.212436             0.054542
C            -0.700000             1.212436             0.093571
C            -1.400000             0.000000             0.096999
C            -0.700000            -1.212436             0.029236
C             0.700000            -1.212436             0.002503
C             1.400000            -0.000000             0.093085
H             1.250000             2.165064             0.046660
H            -1.250000             2.165064             0.088353
C             2.800000             0.000000             0.089477
C             1.400000            -2.424871             0.029678
C             2.800000            -2.424871             0.055063
C             3.500000            -1.212436             0.099404
H             3.350000             0.952628             0.054996
C             4.900000            -1.212436             0.068540
N             3.500000            -3.637307             0.082826
C             4.900000            -3.637307             0.076616
C             5.600000            -2.424871             0.096698
H             5.450000            -0.259808             0.019452
C             7.000000            -2.424871             0.095769
C             5.600000            -4.849742             0.009759
C             7.000000            -4.849742             0.094945
C             7.700000            -3.637307             0.040585
H             7.550000            -1.472243             0.069305
C             9.100000            -3.637307             0.089831
C             7.700000            -6.062178             0.023279
C             9.100000            -6.062178             0.017282
C             9.800000            -4.849742             0.017153
H             9.650000            -2.684679             0.084296
C            11.200000            -4.849742             0.022733
C             9.800000            -7.274613             0.071801
C            11.200000            -7.274613             0.049683
C            11.900000            -6.062178             0.023300
H            11.750000            -3.897114             0.010843
C            13.300000            -6.062178             0.010199
C            11.900000            -8.487049             0.035155
C            13.300000            -8.487049             0.066754
C            14.000000            -7.274613             0.095084
H            13.850000            -5.109550             0.033233
H            13.850000            -9.439677             0.093991
H            15.100000            -7.274613             0.085425
C            -2.800000             0.000000             0.031932
C            -3.500000            -1.212436             0.016131
C            -2.800000            -2.424871             0.066894
C            -1.400000            -2.424871             0.002018
H            -3.350000             0.952628             0.084160
C            -0.700000            -3.637307             0.070782
C             0.700000            -3.637307             0.096188
C             1.400000            -4.849742             0.077059
B             2.800000            -4.849742             0.061479
C             3.500000            -6.062178             0.013698
C             4.900000            -6.062178             0.077711
C             5.600000            -7.274613             0.063516
C             7.000000            -7.274613             0.035882
C             7.700000            -8.487049             0.078733
C             9.100000            -8.487049             0.029980
C             9.800000            -9.699485             0.022891
C            11.200000            -9.699485             0.017718
H            11.750000           -10.652112             0.025963
C            -4.900000            -1.212436             0.031148
C            -5.600000            -2.424871             0.029362
C            -4.900000            -3.637307             0.099847
C            -3.500000            -3.637307             0.043767
H            -5.450000            -0.259808             0.064566
C            -2.800000            -4.849742             0.057418
C            -1.400000            -4.849742             0.091242
C            -0.700000            -6.062178             0.099009
C             0.700000            -6.062178             0.056641
C             1.400000            -7.274613             0.037310
C             2.800000            -7.274613             0.071312
C             3.500000            -8.487049             0.002021
C             4.900000            -8.487049             0.077405
C             5.600000            -9.699485             0.033305
C             7.000000            -9.699485             0.047944
C             7.700000           -10.911920             0.007859
C             9.100000           -10.911920             0.006670
H             9.650000           -11.864548             0.012999
C            -7.000000            -2.424871             0.033088
C            -7.700000            -3.637307             0.030459
C            -7.000000            -4.849742             0.061114
C            -5.600000            -4.849742             0.033122
H            -7.550000            -1.472243             0.080840
C            -4.900000            -6.062178             0.091629
C            -3.500000            -6.062178             0.005851
C            -2.800000            -7.274613             0.030694
C            -1.400000            -7.274613             0.086934
C            -0.700000            -8.487049             0.042720
C             0.700000            -8.487049             0.034518
C             1.400000            -9.699485             0.053510
C             2.800000            -9.699485             0.008620
C             3.500000           -10.911920             0.078147
C             4.900000           -10.911920             0.075138
C             5.600000           -12.124356             0.059393
C             7.000000           -12.124356             0.012332
H             7.550000           -13.076984             0.018586
C            -9.100000            -3.637307             0.023932
C            -9.800000            -4.849742             0.087856
C            -9.100000            -6.062178             0.061658
C            -7.700000            -6.062178             0.095554
H            -9.650000            -2.684679             0.095106
H           -10.900000            -4.849742             0.053882
H            -9.650000            -7.014806             0.017302
C            -7.000000            -7.274613             0.032561
C            -5.600000            -7.274613             0.088576
H            -7.550000            -8.227241             0.042997
C            -4.900000            -8.487049             0.071333
C            -3.500000            -8.487049             0.040096
H            -5.450000            -9.439677             0.012810
C            -2.800000            -9.699485             0.081735
C            -1.400000            -9.699485             0.073361
H            -3.350000           -10.652112             0.051558
C            -0.700000           -10.911920             0.091029
C             0.700000           -10.911920             0.080676
H            -1.250000           -11.864548             0.049062
C             1.400000           -12.124356             0.028373
C             2.800000           -12.124356             0.030924
H             0.850000           -13.076984             0.004708
C             3.500000           -13.336791             0.088814
C             4.900000           -13.336791             0.023185
H             2.950000           -14.289419             0.062878
H             5.450000           -14.289419             0.060532
