120
isomero_17_18
C             0.700000             1.212436             0.014141
C            -0.700000             1.212436             0.042073
C            -1.400000             0.000000             0.020693
C            -0.700000            -1.212436             0.052156
C             0.700000            -1.212436             0.041187
C             1.400000            -0.000000             0.032794
H             1.250000             2.165064             0.090717
H            -1.250000             2.165064             0.035959
C             2.800000             0.000000             0.099504
C             1.400000            -2.424871             0.084963
C             2.800000            -2.424871             0.059781
C             3.500000            -1.212436             0.036247
H             3.350000             0.952628             0.068937
C             4.900000            -1.212436             0.015985
C             3.500000            -3.637307             0.027043
C             4.900000            -3.637307             0.033541
C             5.600000            -2.424871             0.049551
H             5.450000            -0.259808             0.096216
C             7.000000            -2.424871             0.054280
C             5.600000            -4.849742             0.069873
C             7.000000            -4.849742             0.035070
C             7.700000            -3.637307             0.023718
H             7.550000            -1.472243             0.069683
C             9.100000            -3.637307             0.092922
C             7.700000            -6.062178             0.061710
C             9.100000            -6.062178             0.045420
C             9.800000            -4.849742             0.003247
H             9.650000            -2.684679             0.078162
C            11.200000            -4.849742             0.005825
C             9.800000            -7.274613             0.025600
C            11.200000            -7.274613             0.097086
C            11.900000            -6.062178             0.062863
H            11.750000            -3.897114             0.078336
C            13.300000            -6.062178             0.064479
C            11.900000            -8.487049             0.075344
C            13.300000            -8.487049             0.030110
C            14.000000            -7.274613             0.055726
H            13.850000            -5.109550             0.025150
H            13.850000            -9.439677             0.006023
H            15.100000            -7.274613             0.059225
C            -2.800000             0.000000             0.071897
C            -3.500000            -1.212436             0.005149
N            -2.800000            -2.424871             0.046532
B            -1.400000            -2.424871             0.080486
H            -3.350000             0.952628             0.067392
C            -0.700000            -3.637307             0.015412
C             0.700000            -3.637307             0.063167
C             1.400000            -4.849742             0.081734
C             2.800000            -4.849742             0.015929
C             3.500000            -6.062178             0.098633
C             4.900000            -6.062178             0.063693
C             5.600000            -7.274613             0.067406
C             7.000000            -7.274613             0.083260
C             7.700000            -8.487049             0.034612
C             9.100000            -8.487049             0.013380
C             9.800000            -9.699485             0.037388
C            11.200000            -9.699485             0.033069
H            11.750000           -10.652112             0.054704
C            -4.900000            -1.212436             0.065072
C            -5.600000            -2.424871             0.019274
C            -4.900000            -3.637307             0.025384
C            -3.500000            -3.637307             0.065164
H            -5.450000            -0.259808             0.055320
C            -2.800000            -4.849742             0.034293
C            -1.400000            -4.849742             0.042364
C            -0.700000            -6.062178             0.016029
C             0.700000            -6.062178             0.034629
C             1.400000            -7.274613             0.028594
C             2.800000            -7.274613             0.026820
C             3.500000            -8.487049             0.020292
C             4.900000            -8.487049             0.067733
C             5.600000            -9.699485             0.035160
C             7.000000            -9.699485             0.091607
C             7.700000           -10.911920             0.075524
C             9.100000           -10.911920             0.030431
H             9.650000           -11.864548             0.048769
C            -7.000000            -2.424871             0.016082
C            -7.700000            -3.637307             0.023740
C            -7.000000            -4.849742             0.087854
C            -5.600000            -4.849742             0.040070
H            -7.550000            -1.472243             0.004455
C            -4.900000            -6.062178             0.080155
C            -3.500000            -6.062178             0.084206
C            -2.800000            -7.274613             0.049657
C            -1.400000            -7.274613             0.049975
C            -0.700000            -8.487049             0.007542
C             0.700000            -8.487049             0.036351
C             1.400000            -9.699485             0.013447
C             2.800000            -9.699485             0.068318
C             3.500000           -10.911920             0.004666
C             4.900000           -10.911920             0.015245
C             5.600000           -12.124356             0.075161
C             7.000000           -12.124356             0.082906
H             7.550000           -13.076984             0.094140
C            -9.100000            -3.637307             0.010339
C            -9.800000            -4.849742             0.067125
C            -9.100000            -6.062178             0.056546
C            -7.700000            -6.062178             0.010896
H            -9.650000            -2.684679             0.052120
H           -10.900000            -4.849742             0.035188
H            -9.650000            -7.014806             0.027680
C            -7.000000            -7.274613             0.043167
C            -5.600000            -7.274613             0.025744
H            -7.550000            -8.227241             0.001563
C            -4.900000            -8.487049             0.072878
C            -3.500000            -8.487049             0.065410
H            -5.450000            -9.439677             0.099943
C            -2.800000            -9.699485             0.027444
C            -1.400000            -9.699485             0.033430
H            -3.350000           -10.652112             0.051555
C            -0.700000           -10.911920             0.010178
C             0.700000           -10.911920             0.091155
H            -1.250000           -11.864548             0.027215
C             1.400000           -12.124356             0.012192
C             2.800000           -12.124356             0.052481
H             0.850000           -13.076984             0.072439
C             3.500000           -13.336791             0.052560
C             4.900000           -13.336791             0.071779
H             2.950000           -14.289419             0.091515
H             5.450000           -14.289419             0.018254
