120
isomero_4_3
C             0.700000             1.212436             0.051308
C            -0.700000             1.212436             0.041226
C            -1.400000             0.000000             0.079996
C            -0.700000            -1.212436             0.026359
C             0.700000            -1.212436             0.028152
B             1.400000            -0.000000             0.083559
H             1.250000             2.165064             0.081828
H            -1.250000             2.165064             0.024042
N             2.800000             0.000000             0.005994
C             1.400000            -2.424871             0.027186
C             2.800000            -2.424871             0.070279
C             3.500000            -1.212436             0.056370
H             3.350000             0.952628             0.048230
C             4.900000            -1.212436             0.007901
C             3.500000            -3.637307             0.026638
C             4.900000            -3.637307             0.056149
C             5.600000            -2.424871             0.016903
H             5.450000            -0.259808             0.054022
C             7.000000            -2.424871             0.065174
C             5.600000            -4.849742             0.060164
C             7.000000            -4.849742             0.096943
C             7.700000            -3.637307             0.033721
H             7.550000            -1.472243             0.062376
C             9.100000            -3.637307             0.073882
C             7.700000            -6.062178             0.072831
C             9.100000            -6.062178             0.038738
C             9.800000            -4.849742             0.046074
H             9.650000            -2.684679             0.080206
C            11.200000            -4.849742             0.041317
C             9.800000            -7.274613             0.047387
C            11.200000            -7.274613             0.034295
C            11.900000            -6.062178             0.018028
H            11.750000            -3.897114             0.065481
C            13.300000            -6.062178             0.046816
C            11.900000            -8.487049             0.043692
C            13.300000            -8.487049             0.054876
C            14.000000            -7.274613             0.061743
H            13.850000            -5.109550             0.003504
H            13.850000            -9.439677             0.038280
H            15.100000            -7.274613             0.076499
C            -2.800000             0.000000             0.079960
C            -3.500000            -1.212436             0.089948
C            -2.800000            -2.424871             0.044791
C            -1.400000            -2.424871             0.063766
H            -3.350000             0.952628             0.077997
C            -0.700000            -3.637307             0.065147
C             0.700000            -3.637307             0.074686
C             1.400000            -4.849742             0.086004
C             2.800000            -4.849742             0.019819
C             3.500000            -6.062178             0.003969
C             4.900000            -6.062178             0.090061
C             5.600000            -7.274613             0.045509
C             7.000000            -7.274613             0.056139
C             7.700000            -8.487049             0.004557
C             9.100000            -8.487049             0.040758
C             9.800000            -9.699485             0.039127
C            11.200000            -9.699485             0.064795
H            11.750000           -10.652112             0.056562
C            -4.900000            -1.212436             0.055977
C            -5.600000            -2.424871             0.078105
C            -4.900000            -3.637307             0.011227
C            -3.500000            -3.637307             0.017870
H            -5.450000            -0.259808             0.027382
C            -2.800000            -4.849742             0.072093
C            -1.400000            -4.849742             0.086281
C            -0.700000            -6.062178             0.054253
C             0.700000            -6.062178             0.054079
C             1.400000            -7.274613             0.001443
C             2.800000            -7.274613             0.080582
C             3.500000            -8.487049             0.039373
C             4.900000            -8.487049             0.034562
C             5.600000            -9.699485             0.099615
C             7.000000            -9.699485             0.000408
C             7.700000           -10.911920             0.055219
C             9.100000           -10.911920             0.064875
H             9.650000           -11.864548             0.015785
C            -7.000000            -2.424871             0.012721
C            -7.700000            -3.637307             0.079813
C            -7.000000            -4.849742             0.098517
C            -5.600000            -4.849742             0.078312
H            -7.550000            -1.472243             0.029551
C            -4.900000            -6.062178             0.038269
C            -3.500000            -6.062178             0.056238
C            -2.800000            -7.274613             0.068523
C            -1.400000            -7.274613             0.042187
C            -0.700000            -8.487049             0.019758
C             0.700000            -8.487049             0.078050
C             1.400000            -9.699485             0.062561
C             2.800000            -9.699485             0.079589
C             3.500000           -10.911920             0.027337
C             4.900000           -10.911920             0.044628
C             5.600000           -12.124356             0.003931
C             7.000000           -12.124356             0.081638
H             7.550000           -13.076984             0.002674
C            -9.100000            -3.637307             0.040304
C            -9.800000            -4.849742             0.053087
C            -9.100000            -6.062178             0.011080
C            -7.700000            -6.062178             0.043783
H            -9.650000            -2.684679             0.032120
H           -10.900000            -4.849742             0.093468
H            -9.650000            -7.014806             0.086213
C            -7.000000            -7.274613             0.087994
C            -5.600000            -7.274613             0.036436
H            -7.550000            -8.227241             0.063680
C            -4.900000            -8.487049             0.023289
C            -3.500000            -8.487049             0.053899
H            -5.450000            -9.439677             0.095110
C            -2.800000            -9.699485             0.080969
C            -1.400000            -9.699485             0.098554
H            -3.350000           -10.652112             0.081152
C            -0.700000           -10.911920             0.067895
C             0.700000           -10.911920             0.062171
H            -1.250000           -11.864548             0.031528
C             1.400000           -12.124356             0.010108
C             2.800000           -12.124356             0.097167
H             0.850000           -13.076984             0.009476
C             3.500000           -13.336791             0.046618
C             4.900000           -13.336791             0.042957
H             2.950000           -14.289419             0.080190
H             5.450000           -14.289419             0.061480
