120
isomero_29_30
C             0.700000             1.212436             0.068266
C            -0.700000             1.212436             0.041279
C            -1.400000             0.000000             0.062207
C            -0.700000            -1.212436             0.093874
C             0.700000            -1.212436             0.057146
C             1.400000            -0.000000             0.040600
H             1.250000             2.165064             0.002379
H            -1.250000             2.165064             0.040218
C             2.800000             0.000000             0.068475
C             1.400000            -2.424871             0.060646
C             2.800000            -2.424871             0.000858
C             3.500000            -1.212436             0.031818
H             3.350000             0.952628             0.086157
C             4.900000            -1.212436             0.073643
C             3.500000            -3.637307             0.023471
C             4.900000            -3.637307             0.033242
C             5.600000            -2.424871             0.088199
H             5.450000            -0.259808             0.078907
C             7.000000            -2.424871             0.061940
C             5.600000            -4.849742             0.000584
C             7.000000            -4.849742             0.057462
C             7.700000            -3.637307             0.056604
H             7.550000            -1.472243             0.021340
C             9.100000            -3.637307             0.005302
C             7.700000            -6.062178             0.093531
C             9.100000            -6.062178             0.066076
C             9.800000            -4.849742             0.034636
H             9.650000            -2.684679             0.052351
C            11.200000            -4.849742             0.089112
C             9.800000            -7.274613             0.003161
C            11.200000            -7.274613             0.060213
C            11.900000            -6.062178             0.088837
H            11.750000            -3.897114             0.055532
C            13.300000            -6.062178             0.093979
C            11.900000            -8.487049             0.037616
C            13.300000            -8.487049             0.050588
C            14.000000            -7.274613             0.028718
H            13.850000            -5.109550             0.019314
H            13.850000            -9.439677             0.063219
H            15.100000            -7.274613             0.094359
C            -2.800000             0.000000             0.011262
C            -3.500000            -1.212436             0.073827
C            -2.800000            -2.424871             0.024451
C            -1.400000            -2.424871             0.086623
H            -3.350000             0.952628             0.059142
C            -0.700000            -3.637307             0.048652
C             0.700000            -3.637307             0.052603
C             1.400000            -4.849742             0.003348
C             2.800000            -4.849742             0.042447
C             3.500000            -6.062178             0.016528
C             4.900000            -6.062178             0.034556
C             5.600000            -7.274613             0.061752
C             7.000000            -7.274613             0.008189
C             7.700000            -8.487049             0.062381
C             9.100000            -8.487049             0.037573
C             9.800000            -9.699485             0.088872
C            11.200000            -9.699485             0.002453
H            11.750000           -10.652112             0.057304
C            -4.900000            -1.212436             0.019495
C            -5.600000            -2.424871             0.078943
C            -4.900000            -3.637307             0.054944
C            -3.500000            -3.637307             0.048214
H            -5.450000            -0.259808             0.067058
C            -2.800000            -4.849742             0.083390
C            -1.400000            -4.849742             0.079362
C            -0.700000            -6.062178             0.000542
C             0.700000            -6.062178             0.006769
C             1.400000            -7.274613             0.053254
C             2.800000            -7.274613             0.072271
C             3.500000            -8.487049             0.088975
C             4.900000            -8.487049             0.014189
C             5.600000            -9.699485             0.029822
C             7.000000            -9.699485             0.006064
C             7.700000           -10.911920             0.069765
C             9.100000           -10.911920             0.002762
H             9.650000           -11.864548             0.019430
C            -7.000000            -2.424871             0.007057
B            -7.700000            -3.637307             0.014153
C            -7.000000            -4.849742             0.094597
C            -5.600000            -4.849742             0.053332
H            -7.550000            -1.472243             0.010572
C            -4.900000            -6.062178             0.095045
C            -3.500000            -6.062178             0.020939
C            -2.800000            -7.274613             0.009154
C            -1.400000            -7.274613             0.086152
C            -0.700000            -8.487049             0.062700
C             0.700000            -8.487049             0.039874
C             1.400000            -9.699485             0.050880
C             2.800000            -9.699485             0.099375
C             3.500000           -10.911920             0.039511
C             4.900000           -10.911920             0.045887
C             5.600000           -12.124356             0.030177
C             7.000000           -12.124356             0.015767
H             7.550000           -13.076984             0.072571
N            -9.100000            -3.637307             0.048020
C            -9.800000            -4.849742             0.071482
C            -9.100000            -6.062178             0.098408
C            -7.700000            -6.062178             0.040661
H            -9.650000            -2.684679             0.053152
H           -10.900000            -4.849742             0.088191
H            -9.650000            -7.014806             0.024480
C            -7.000000            -7.274613             0.017663
C            -5.600000            -7.274613             0.037399
H            -7.550000            -8.227241             0.005463
C            -4.900000            -8.487049             0.079744
C            -3.500000            -8.487049             0.071876
H            -5.450000            -9.439677             0.035306
C            -2.800000            -9.699485             0.076537
C            -1.400000            -9.699485             0.021867
H            -3.350000           -10.652112             0.029899
C            -0.700000           -10.911920             0.099774
C             0.700000           -10.911920             0.078046
H            -1.250000           -11.864548             0.061934
C             1.400000           -12.124356             0.012096
C             2.800000           -12.124356             0.058722
H             0.850000           -13.076984             0.009979
C             3.500000           -13.336791             0.049638
C             4.900000           -13.336791             0.096492
H             2.950000           -14.289419             0.034115
H             5.450000           -14.289419             0.064446
