120
isomero_44_32
C             0.700000             1.212436             0.057571
C            -0.700000             1.212436             0.022377
C            -1.400000             0.000000             0.025998
C            -0.700000            -1.212436             0.086720
C             0.700000            -1.212436             0.025492
C             1.400000            -0.000000             0.077415
H             1.250000             2.165064             0.003943
H            -1.250000             2.165064             0.032094
C             2.800000             0.000000             0.057801
C             1.400000            -2.424871             0.001781
C             2.800000            -2.424871             0.027766
C             3.500000            -1.212436             0.099071
H             3.350000             0.952628             0.024227
C             4.900000            -1.212436             0.091379
C             3.500000            -3.637307             0.029601
C             4.900000            -3.637307             0.039009
C             5.600000            -2.424871             0.012486
H             5.450000            -0.259808             0.006942
C             7.000000            -2.424871             0.047837
C             5.600000            -4.849742             0.046660
C             7.000000            -4.849742             0.067480
C             7.700000            -3.637307             0.038330
H             7.550000            -1.472243             0.028103
C             9.100000            -3.637307             0.002493
C             7.700000            -6.062178             0.006065
B             9.100000            -6.062178             0.052606
N             9.800000            -4.849742             0.080494
H             9.650000            -2.684679             0.026944
C            11.200000            -4.849742             0.010983
C             9.800000            -7.274613             0.013252
C            11.200000            -7.274613             0.003515
C            11.900000            -6.062178             0.008112
H            11.750000            -3.897114             0.074807
C            13.300000            -6.062178             0.013773
C            11.900000            -8.487049             0.072771
C            13.300000            -8.487049             0.067452
C            14.000000            -7.274613             0.077630
H            13.850000            -5.109550             0.060652
H            13.850000            -9.439677             0.003123
H            15.100000            -7.274613             0.092101
C            -2.800000             0.000000             0.063570
C            -3.500000            -1.212436             0.086323
C            -2.800000            -2.424871             0.059334
C            -1.400000            -2.424871             0.034095
H            -3.350000             0.952628             0.079268
C            -0.700000            -3.637307             0.026795
C             0.700000            -3.637307             0.098785
C             1.400000            -4.849742             0.078830
C             2.800000            -4.849742             0.037515
C             3.500000            -6.062178             0.074607
C             4.900000            -6.062178             0.012969
C             5.600000            -7.274613             0.081265
C             7.000000            -7.274613             0.085082
C             7.700000            -8.487049             0.030638
C             9.100000            -8.487049             0.077761
C             9.800000            -9.699485             0.085569
C            11.200000            -9.699485             0.089698
H            11.750000           -10.652112             0.000563
C            -4.900000            -1.212436             0.097082
C            -5.600000            -2.424871             0.019529
C            -4.900000            -3.637307             0.063887
C            -3.500000            -3.637307             0.085052
H            -5.450000            -0.259808             0.078603
C            -2.800000            -4.849742             0.065059
C            -1.400000            -4.849742             0.027720
C            -0.700000            -6.062178             0.031170
C             0.700000            -6.062178             0.041079
C             1.400000            -7.274613             0.042597
C             2.800000            -7.274613             0.057583
C             3.500000            -8.487049             0.059687
C             4.900000            -8.487049             0.036367
C             5.600000            -9.699485             0.033620
C             7.000000            -9.699485             0.043529
C             7.700000           -10.911920             0.024768
C             9.100000           -10.911920             0.028974
H             9.650000           -11.864548             0.075916
C            -7.000000            -2.424871             0.050156
C            -7.700000            -3.637307             0.094227
C            -7.000000            -4.849742             0.027954
C            -5.600000            -4.849742             0.053530
H            -7.550000            -1.472243             0.058928
C            -4.900000            -6.062178             0.029986
C            -3.500000            -6.062178             0.094368
C            -2.800000            -7.274613             0.040392
C            -1.400000            -7.274613             0.027432
C            -0.700000            -8.487049             0.022469
C             0.700000            -8.487049             0.026920
C             1.400000            -9.699485             0.023192
C             2.800000            -9.699485             0.086448
C             3.500000           -10.911920             0.045306
C             4.900000           -10.911920             0.087851
C             5.600000           -12.124356             0.034735
C             7.000000           -12.124356             0.087800
H             7.550000           -13.076984             0.014854
C            -9.100000            -3.637307             0.059744
C            -9.800000            -4.849742             0.026246
C            -9.100000            -6.062178             0.031319
C            -7.700000            -6.062178             0.019125
H            -9.650000            -2.684679             0.047451
H           -10.900000            -4.849742             0.062002
H            -9.650000            -7.014806             0.035642
C            -7.000000            -7.274613             0.004439
C            -5.600000            -7.274613             0.000249
H            -7.550000            -8.227241             0.046204
C            -4.900000            -8.487049             0.007487
C            -3.500000            -8.487049             0.081350
H            -5.450000            -9.439677             0.093785
C            -2.800000            -9.699485             0.008523
C            -1.400000            -9.699485             0.099412
H            -3.350000           -10.652112             0.054252
C            -0.700000           -10.911920             0.021955
C             0.700000           -10.911920             0.010532
H            -1.250000           -11.864548             0.063960
C             1.400000           -12.124356             0.027680
C             2.800000           -12.124356             0.038158
H             0.850000           -13.076984             0.061985
C             3.500000           -13.336791             0.053582
C             4.900000           -13.336791             0.053568
H             2.950000           -14.289419             0.098925
H             5.450000           -14.289419             0.071776
