120
isomero_26_25
C             0.700000             1.212436             0.092011
C            -0.700000             1.212436             0.078625
C            -1.400000             0.000000             0.018927
C            -0.700000            -1.212436             0.099513
C             0.700000            -1.212436             0.079565
C             1.400000            -0.000000             0.051028
H             1.250000             2.165064             0.069050
H            -1.250000             2.165064             0.046358
C             2.800000             0.000000             0.043226
C             1.400000            -2.424871             0.087664
C             2.800000            -2.424871             0.071918
C             3.500000            -1.212436             0.031353
H             3.350000             0.952628             0.006565
C             4.900000            -1.212436             0.042217
C             3.500000            -3.637307             0.013977
C             4.900000            -3.637307             0.008506
C             5.600000            -2.424871             0.069058
H             5.450000            -0.259808             0.055063
C             7.000000            -2.424871             0.090647
C             5.600000            -4.849742             0.089732
C             7.000000            -4.849742             0.026617
C             7.700000            -3.637307             0.033162
H             7.550000            -1.472243             0.051812
C             9.100000            -3.637307             0.064510
C             7.700000            -6.062178             0.096488
C             9.100000            -6.062178             0.024528
C             9.800000            -4.849742             0.000312
H             9.650000            -2.684679             0.085072
C            11.200000            -4.849742             0.040116
C             9.800000            -7.274613             0.071360
C            11.200000            -7.274613             0.098301
C            11.900000            -6.062178             0.016145
H            11.750000            -3.897114             0.005096
C            13.300000            -6.062178             0.050395
C            11.900000            -8.487049             0.024255
C            13.300000            -8.487049             0.016413
C            14.000000            -7.274613             0.093719
H            13.850000            -5.109550             0.054765
H            13.850000            -9.439677             0.077011
H            15.100000            -7.274613             0.031624
C            -2.800000             0.000000             0.092182
C            -3.500000            -1.212436             0.086860
C            -2.800000            -2.424871             0.088529
C            -1.400000            -2.424871             0.065626
H            -3.350000             0.952628             0.083485
B            -0.700000            -3.637307             0.063988
N             0.700000            -3.637307             0.032707
C             1.400000            -4.849742             0.027497
C             2.800000            -4.849742             0.021637
C             3.500000            -6.062178             0.027939
C             4.900000            -6.062178             0.025277
C             5.600000            -7.274613             0.071095
C             7.000000            -7.274613             0.008211
C             7.700000            -8.487049             0.029977
C             9.100000            -8.487049             0.011117
C             9.800000            -9.699485             0.023314
C            11.200000            -9.699485             0.096370
H            11.750000           -10.652112             0.074718
C            -4.900000            -1.212436             0.062108
C            -5.600000            -2.424871             0.051679
C            -4.900000            -3.637307             0.081133
C            -3.500000            -3.637307             0.027463
H            -5.450000            -0.259808             0.096738
C            -2.800000            -4.849742             0.084498
C            -1.400000            -4.849742             0.028646
C            -0.700000            -6.062178             0.089016
C             0.700000            -6.062178             0.023870
C             1.400000            -7.274613             0.049920
C             2.800000            -7.274613             0.003279
C             3.500000            -8.487049             0.065631
C             4.900000            -8.487049             0.063486
C             5.600000            -9.699485             0.073681
C             7.000000            -9.699485             0.032692
C             7.700000           -10.911920             0.052161
C             9.100000           -10.911920             0.007762
H             9.650000           -11.864548             0.028795
C            -7.000000            -2.424871             0.005180
C            -7.700000            -3.637307             0.044198
C            -7.000000            -4.849742             0.061630
C            -5.600000            -4.849742             0.047214
H            -7.550000            -1.472243             0.001148
C            -4.900000            -6.062178             0.030513
C            -3.500000            -6.062178             0.064527
C            -2.800000            -7.274613             0.052941
C            -1.400000            -7.274613             0.025536
C            -0.700000            -8.487049             0.031795
C             0.700000            -8.487049             0.011329
C             1.400000            -9.699485             0.007363
C             2.800000            -9.699485             0.058859
C             3.500000           -10.911920             0.096680
C             4.900000           -10.911920             0.071372
C             5.600000           -12.124356             0.024311
C             7.000000           -12.124356             0.077021
H             7.550000           -13.076984             0.070171
C            -9.100000            -3.637307             0.033978
C            -9.800000            -4.849742             0.006670
C            -9.100000            -6.062178             0.061373
C            -7.700000            -6.062178             0.044623
H            -9.650000            -2.684679             0.097673
H           -10.900000            -4.849742             0.078810
H            -9.650000            -7.014806             0.007787
C            -7.000000            -7.274613             0.025003
C            -5.600000            -7.274613             0.091741
H            -7.550000            -8.227241             0.022783
C            -4.900000            -8.487049             0.061298
C            -3.500000            -8.487049             0.036381
H            -5.450000            -9.439677             0.048278
C            -2.800000            -9.699485             0.020386
C            -1.400000            -9.699485             0.024390
H            -3.350000           -10.652112             0.099820
C            -0.700000           -10.911920             0.062913
C             0.700000           -10.911920             0.094719
H            -1.250000           -11.864548             0.093447
C             1.400000           -12.124356             0.093469
C             2.800000           -12.124356             0.020509
H             0.850000           -13.076984             0.084542
C             3.500000           -13.336791             0.000366
C             4.900000           -13.336791             0.059835
H             2.950000           -14.289419             0.008089
H             5.450000           -14.289419             0.095653
