120
isomero_36_48
C             0.700000             1.212436             0.029630
C            -0.700000             1.212436             0.083427
C            -1.400000             0.000000             0.076258
C            -0.700000            -1.212436             0.072088
C             0.700000            -1.212436             0.092774
C             1.400000            -0.000000             0.013565
H             1.250000             2.165064             0.047349
H            -1.250000             2.165064             0.094192
C             2.800000             0.000000             0.093685
C             1.400000            -2.424871             0.077445
C             2.800000            -2.424871             0.031526
C             3.500000            -1.212436             0.099953
H             3.350000             0.952628             0.069093
C             4.900000            -1.212436             0.085620
C             3.500000            -3.637307             0.009856
C             4.900000            -3.637307             0.081688
C             5.600000            -2.424871             0.045316
H             5.450000            -0.259808             0.006072
C             7.000000            -2.424871             0.048390
C             5.600000            -4.849742             0.062290
C             7.000000            -4.849742             0.009739
C             7.700000            -3.637307             0.030995
H             7.550000            -1.472243             0.060332
C             9.100000            -3.637307             0.074572
C             7.700000            -6.062178             0.038018
C             9.100000            -6.062178             0.033524
C             9.800000            -4.849742             0.013691
H             9.650000            -2.684679             0.048179
C            11.200000            -4.849742             0.090909
C             9.800000            -7.274613             0.026910
C            11.200000            -7.274613             0.021936
C            11.900000            -6.062178             0.027262
H            11.750000            -3.897114             0.068873
C            13.300000            -6.062178             0.009080
C            11.900000            -8.487049             0.085152
C            13.300000            -8.487049             0.033317
C            14.000000            -7.274613             0.033677
H            13.850000            -5.109550             0.025476
H            13.850000            -9.439677             0.087647
H            15.100000            -7.274613             0.014661
C            -2.800000             0.000000             0.027582
C            -3.500000            -1.212436             0.067381
C            -2.800000            -2.424871             0.050792
C            -1.400000            -2.424871             0.063759
H            -3.350000             0.952628             0.061466
C            -0.700000            -3.637307             0.062398
C             0.700000            -3.637307             0.000675
B             1.400000            -4.849742             0.048091
C             2.800000            -4.849742             0.005335
C             3.500000            -6.062178             0.055934
C             4.900000            -6.062178             0.022971
C             5.600000            -7.274613             0.079223
C             7.000000            -7.274613             0.047257
C             7.700000            -8.487049             0.064245
C             9.100000            -8.487049             0.016014
C             9.800000            -9.699485             0.070284
C            11.200000            -9.699485             0.005519
H            11.750000           -10.652112             0.097487
C            -4.900000            -1.212436             0.080929
C            -5.600000            -2.424871             0.030815
C            -4.900000            -3.637307             0.081675
C            -3.500000            -3.637307             0.081807
H            -5.450000            -0.259808             0.016677
C            -2.800000            -4.849742             0.010418
C            -1.400000            -4.849742             0.012865
C            -0.700000            -6.062178             0.014548
N             0.700000            -6.062178             0.012055
C             1.400000            -7.274613             0.096855
C             2.800000            -7.274613             0.036753
C             3.500000            -8.487049             0.069754
C             4.900000            -8.487049             0.080560
C             5.600000            -9.699485             0.014883
C             7.000000            -9.699485             0.015945
C             7.700000           -10.911920             0.084830
C             9.100000           -10.911920             0.071305
H             9.650000           -11.864548             0.023589
C            -7.000000            -2.424871             0.047231
C            -7.700000            -3.637307             0.062760
C            -7.000000            -4.849742             0.052302
C            -5.600000            -4.849742             0.029374
H            -7.550000            -1.472243             0.039635
C            -4.900000            -6.062178             0.022234
C            -3.500000            -6.062178             0.091604
C            -2.800000            -7.274613             0.058090
C            -1.400000            -7.274613             0.074405
C            -0.700000            -8.487049             0.026345
C             0.700000            -8.487049             0.008910
C             1.400000            -9.699485             0.078440
C             2.800000            -9.699485             0.068516
C             3.500000           -10.911920             0.091381
C             4.900000           -10.911920             0.058052
C             5.600000           -12.124356             0.052793
C             7.000000           -12.124356             0.016497
H             7.550000           -13.076984             0.074983
C            -9.100000            -3.637307             0.004783
C            -9.800000            -4.849742             0.019448
C            -9.100000            -6.062178             0.068906
C            -7.700000            -6.062178             0.022920
H            -9.650000            -2.684679             0.099660
H           -10.900000            -4.849742             0.022090
H            -9.650000            -7.014806             0.042259
C            -7.000000            -7.274613             0.038714
C            -5.600000            -7.274613             0.036539
H            -7.550000            -8.227241             0.005443
C            -4.900000            -8.487049             0.092351
C            -3.500000            -8.487049             0.093484
H            -5.450000            -9.439677             0.023635
C            -2.800000            -9.699485             0.067701
C            -1.400000            -9.699485             0.075022
H            -3.350000           -10.652112             0.014522
C            -0.700000           -10.911920             0.032289
C             0.700000           -10.911920             0.037244
H            -1.250000           -11.864548             0.092003
C             1.400000           -12.124356             0.043841
C             2.800000           -12.124356             0.033432
H             0.850000           -13.076984             0.044586
C             3.500000           -13.336791             0.095091
C             4.900000           -13.336791             0.083564
H             2.950000           -14.289419             0.082532
H             5.450000           -14.289419             0.011052
