120
isomero_14_13
C             0.700000             1.212436             0.097026
C            -0.700000             1.212436             0.019907
C            -1.400000             0.000000             0.015879
C            -0.700000            -1.212436             0.029462
C             0.700000            -1.212436             0.094232
C             1.400000            -0.000000             0.000491
H             1.250000             2.165064             0.055232
H            -1.250000             2.165064             0.083169
C             2.800000             0.000000             0.054542
C             1.400000            -2.424871             0.042521
C             2.800000            -2.424871             0.080312
C             3.500000            -1.212436             0.071603
H             3.350000             0.952628             0.015796
C             4.900000            -1.212436             0.097374
C             3.500000            -3.637307             0.014209
C             4.900000            -3.637307             0.075159
B             5.600000            -2.424871             0.006859
H             5.450000            -0.259808             0.094081
N             7.000000            -2.424871             0.037400
C             5.600000            -4.849742             0.084966
C             7.000000            -4.849742             0.024155
C             7.700000            -3.637307             0.017662
H             7.550000            -1.472243             0.097003
C             9.100000            -3.637307             0.028489
C             7.700000            -6.062178             0.068883
C             9.100000            -6.062178             0.038158
C             9.800000            -4.849742             0.021090
H             9.650000            -2.684679             0.057234
C            11.200000            -4.849742             0.075853
C             9.800000            -7.274613             0.038836
C            11.200000            -7.274613             0.055496
C            11.900000            -6.062178             0.068597
H            11.750000            -3.897114             0.070929
C            13.300000            -6.062178             0.031829
C            11.900000            -8.487049             0.047125
C            13.300000            -8.487049             0.098206
C            14.000000            -7.274613             0.020823
H            13.850000            -5.109550             0.033239
H            13.850000            -9.439677             0.037476
H            15.100000            -7.274613             0.021558
C            -2.800000             0.000000             0.047525
C            -3.500000            -1.212436             0.057705
C            -2.800000            -2.424871             0.025916
C            -1.400000            -2.424871             0.041506
H            -3.350000             0.952628             0.052921
C            -0.700000            -3.637307             0.049696
C             0.700000            -3.637307             0.053867
C             1.400000            -4.849742             0.029598
C             2.800000            -4.849742             0.093813
C             3.500000            -6.062178             0.034393
C             4.900000            -6.062178             0.085885
C             5.600000            -7.274613             0.082448
C             7.000000            -7.274613             0.056560
C             7.700000            -8.487049             0.091777
C             9.100000            -8.487049             0.082050
C             9.800000            -9.699485             0.031181
C            11.200000            -9.699485             0.078263
H            11.750000           -10.652112             0.014446
C            -4.900000            -1.212436             0.085601
C            -5.600000            -2.424871             0.049624
C            -4.900000            -3.637307             0.093394
C            -3.500000            -3.637307             0.081374
H            -5.450000            -0.259808             0.053903
C            -2.800000            -4.849742             0.088439
C            -1.400000            -4.849742             0.049880
C            -0.700000            -6.062178             0.056568
C             0.700000            -6.062178             0.059657
C             1.400000            -7.274613             0.032388
C             2.800000            -7.274613             0.061099
C             3.500000            -8.487049             0.094516
C             4.900000            -8.487049             0.038693
C             5.600000            -9.699485             0.041721
C             7.000000            -9.699485             0.005170
C             7.700000           -10.911920             0.078919
C             9.100000           -10.911920             0.043164
H             9.650000           -11.864548             0.069037
C            -7.000000            -2.424871             0.065128
C            -7.700000            -3.637307             0.071902
C            -7.000000            -4.849742             0.037941
C            -5.600000            -4.849742             0.060697
H            -7.550000            -1.472243             0.064533
C            -4.900000            -6.062178             0.031974
C            -3.500000            -6.062178             0.099954
C            -2.800000            -7.274613             0.057734
C            -1.400000            -7.274613             0.073906
C            -0.700000            -8.487049             0.003622
C             0.700000            -8.487049             0.020651
C             1.400000            -9.699485             0.082017
C             2.800000            -9.699485             0.014034
C             3.500000           -10.911920             0.036107
C             4.900000           -10.911920             0.032357
C             5.600000           -12.124356             0.003152
C             7.000000           -12.124356             0.029426
H             7.550000           -13.076984             0.097363
C            -9.100000            -3.637307             0.015596
C            -9.800000            -4.849742             0.048889
C            -9.100000            -6.062178             0.063074
C            -7.700000            -6.062178             0.055966
H            -9.650000            -2.684679             0.044794
H           -10.900000            -4.849742             0.040944
H            -9.650000            -7.014806             0.012877
C            -7.000000            -7.274613             0.055703
C            -5.600000            -7.274613             0.034260
H            -7.550000            -8.227241             0.055125
C            -4.900000            -8.487049             0.001690
C            -3.500000            -8.487049             0.078600
H            -5.450000            -9.439677             0.067290
C            -2.800000            -9.699485             0.089230
C            -1.400000            -9.699485             0.007418
H            -3.350000           -10.652112             0.087255
C            -0.700000           -10.911920             0.077816
C             0.700000           -10.911920             0.035695
H            -1.250000           -11.864548             0.084315
C             1.400000           -12.124356             0.064719
C             2.800000           -12.124356             0.031207
H             0.850000           -13.076984             0.057151
C             3.500000           -13.336791             0.078924
C             4.900000           -13.336791             0.003148
H             2.950000           -14.289419             0.024827
H             5.450000           -14.289419             0.012697
