120
isomero_45_33
C             0.700000             1.212436             0.019370
C            -0.700000             1.212436             0.014385
C            -1.400000             0.000000             0.078442
C            -0.700000            -1.212436             0.082976
C             0.700000            -1.212436             0.048707
C             1.400000            -0.000000             0.080675
H             1.250000             2.165064             0.031664
H            -1.250000             2.165064             0.048810
C             2.800000             0.000000             0.099173
C             1.400000            -2.424871             0.095694
C             2.800000            -2.424871             0.087938
C             3.500000            -1.212436             0.076503
H             3.350000             0.952628             0.046523
C             4.900000            -1.212436             0.096982
C             3.500000            -3.637307             0.007155
C             4.900000            -3.637307             0.076673
C             5.600000            -2.424871             0.068387
H             5.450000            -0.259808             0.006126
C             7.000000            -2.424871             0.043509
C             5.600000            -4.849742             0.029731
N             7.000000            -4.849742             0.059309
C             7.700000            -3.637307             0.065950
H             7.550000            -1.472243             0.070678
C             9.100000            -3.637307             0.071248
B             7.700000            -6.062178             0.003817
C             9.100000            -6.062178             0.062047
C             9.800000            -4.849742             0.076510
H             9.650000            -2.684679             0.057579
C            11.200000            -4.849742             0.061033
C             9.800000            -7.274613             0.058223
C            11.200000            -7.274613             0.036965
C            11.900000            -6.062178             0.007737
H            11.750000            -3.897114             0.079691
C            13.300000            -6.062178             0.046365
C            11.900000            -8.487049             0.058943
C            13.300000            -8.487049             0.048931
C            14.000000            -7.274613             0.001192
H            13.850000            -5.109550             0.046049
H            13.850000            -9.439677             0.057937
H            15.100000            -7.274613             0.065663
C            -2.800000             0.000000             0.065761
C            -3.500000            -1.212436             0.064747
C            -2.800000            -2.424871             0.096900
C            -1.400000            -2.424871             0.010365
H            -3.350000             0.952628             0.019478
C            -0.700000            -3.637307             0.086079
C             0.700000            -3.637307             0.098557
C             1.400000            -4.849742             0.034546
C             2.800000            -4.849742             0.070914
C             3.500000            -6.062178             0.076650
C             4.900000            -6.062178             0.080733
C             5.600000            -7.274613             0.046551
C             7.000000            -7.274613             0.047002
C             7.700000            -8.487049             0.031715
C             9.100000            -8.487049             0.031304
C             9.800000            -9.699485             0.092402
C            11.200000            -9.699485             0.083117
H            11.750000           -10.652112             0.055779
C            -4.900000            -1.212436             0.083954
C            -5.600000            -2.424871             0.089086
C            -4.900000            -3.637307             0.088132
C            -3.500000            -3.637307             0.059589
H            -5.450000            -0.259808             0.035302
C            -2.800000            -4.849742             0.048644
C            -1.400000            -4.849742             0.079857
C            -0.700000            -6.062178             0.008862
C             0.700000            -6.062178             0.001989
C             1.400000            -7.274613             0.056859
C             2.800000            -7.274613             0.038732
C             3.500000            -8.487049             0.067380
C             4.900000            -8.487049             0.017131
C             5.600000            -9.699485             0.014088
C             7.000000            -9.699485             0.006686
C             7.700000           -10.911920             0.005022
C             9.100000           -10.911920             0.013560
H             9.650000           -11.864548             0.031895
C            -7.000000            -2.424871             0.075795
C            -7.700000            -3.637307             0.026446
C            -7.000000            -4.849742             0.038496
C            -5.600000            -4.849742             0.022483
H            -7.550000            -1.472243             0.064204
C            -4.900000            -6.062178             0.058323
C            -3.500000            -6.062178             0.001744
C            -2.800000            -7.274613             0.070701
C            -1.400000            -7.274613             0.025550
C            -0.700000            -8.487049             0.023152
C             0.700000            -8.487049             0.076873
C             1.400000            -9.699485             0.063731
C             2.800000            -9.699485             0.052110
C             3.500000           -10.911920             0.037971
C             4.900000           -10.911920             0.070342
C             5.600000           -12.124356             0.030308
C             7.000000           -12.124356             0.010944
H             7.550000           -13.076984             0.038133
C            -9.100000            -3.637307             0.081655
C            -9.800000            -4.849742             0.070376
C            -9.100000            -6.062178             0.016360
C            -7.700000            -6.062178             0.076423
H            -9.650000            -2.684679             0.092557
H           -10.900000            -4.849742             0.021161
H            -9.650000            -7.014806             0.020598
C            -7.000000            -7.274613             0.031733
C            -5.600000            -7.274613             0.060149
H            -7.550000            -8.227241             0.090362
C            -4.900000            -8.487049             0.024561
C            -3.500000            -8.487049             0.006107
H            -5.450000            -9.439677             0.062938
C            -2.800000            -9.699485             0.084466
C            -1.400000            -9.699485             0.049229
H            -3.350000           -10.652112             0.085551
C            -0.700000           -10.911920             0.026715
C             0.700000           -10.911920             0.019239
H            -1.250000           -11.864548             0.050628
C             1.400000           -12.124356             0.066466
C             2.800000           -12.124356             0.018255
H             0.850000           -13.076984             0.026144
C             3.500000           -13.336791             0.018915
C             4.900000           -13.336791             0.085447
H             2.950000           -14.289419             0.039702
H             5.450000           -14.289419             0.079026
