120
isomero_23_14
C             0.700000             1.212436             0.009966
C            -0.700000             1.212436             0.066445
C            -1.400000             0.000000             0.061559
C            -0.700000            -1.212436             0.069550
C             0.700000            -1.212436             0.030374
C             1.400000            -0.000000             0.078422
H             1.250000             2.165064             0.050021
H            -1.250000             2.165064             0.057282
C             2.800000             0.000000             0.041904
C             1.400000            -2.424871             0.073347
C             2.800000            -2.424871             0.001949
C             3.500000            -1.212436             0.069522
H             3.350000             0.952628             0.069135
C             4.900000            -1.212436             0.076165
C             3.500000            -3.637307             0.097000
B             4.900000            -3.637307             0.047932
N             5.600000            -2.424871             0.048024
H             5.450000            -0.259808             0.039257
C             7.000000            -2.424871             0.036386
C             5.600000            -4.849742             0.000323
C             7.000000            -4.849742             0.013696
C             7.700000            -3.637307             0.046595
H             7.550000            -1.472243             0.067448
C             9.100000            -3.637307             0.002890
C             7.700000            -6.062178             0.072610
C             9.100000            -6.062178             0.050527
C             9.800000            -4.849742             0.085107
H             9.650000            -2.684679             0.061002
C            11.200000            -4.849742             0.081727
C             9.800000            -7.274613             0.064545
C            11.200000            -7.274613             0.052646
C            11.900000            -6.062178             0.058837
H            11.750000            -3.897114             0.032202
C            13.300000            -6.062178             0.072770
C            11.900000            -8.487049             0.037327
C            13.300000            -8.487049             0.067684
C            14.000000            -7.274613             0.002775
H            13.850000            -5.109550             0.048542
H            13.850000            -9.439677             0.034837
H            15.100000            -7.274613             0.091242
C            -2.800000             0.000000             0.020560
C            -3.500000            -1.212436             0.012534
C            -2.800000            -2.424871             0.038449
C            -1.400000            -2.424871             0.035274
H            -3.350000             0.952628             0.060237
C            -0.700000            -3.637307             0.093393
C             0.700000            -3.637307             0.047631
C             1.400000            -4.849742             0.078969
C             2.800000            -4.849742             0.017315
C             3.500000            -6.062178             0.080819
C             4.900000            -6.062178             0.066546
C             5.600000            -7.274613             0.007173
C             7.000000            -7.274613             0.038639
C             7.700000            -8.487049             0.062630
C             9.100000            -8.487049             0.072634
C             9.800000            -9.699485             0.056395
C            11.200000            -9.699485             0.012502
H            11.750000           -10.652112             0.072292
C            -4.900000            -1.212436             0.058317
C            -5.600000            -2.424871             0.048101
C            -4.900000            -3.637307             0.033812
C            -3.500000            -3.637307             0.079580
H            -5.450000            -0.259808             0.017143
C            -2.800000            -4.849742             0.090198
C            -1.400000            -4.849742             0.089233
C            -0.700000            -6.062178             0.089452
C             0.700000            -6.062178             0.020265
C             1.400000            -7.274613             0.052340
C             2.800000            -7.274613             0.097722
C             3.500000            -8.487049             0.031969
C             4.900000            -8.487049             0.018297
C             5.600000            -9.699485             0.073780
C             7.000000            -9.699485             0.053023
C             7.700000           -10.911920             0.090316
C             9.100000           -10.911920             0.012833
H             9.650000           -11.864548             0.095067
C            -7.000000            -2.424871             0.043399
C            -7.700000            -3.637307             0.008220
C            -7.000000            -4.849742             0.009461
C            -5.600000            -4.849742             0.045241
H            -7.550000            -1.472243             0.029851
C            -4.900000            -6.062178             0.076051
C            -3.500000            -6.062178             0.015084
C            -2.800000            -7.274613             0.087908
C            -1.400000            -7.274613             0.000988
C            -0.700000            -8.487049             0.016072
C             0.700000            -8.487049             0.002574
C             1.400000            -9.699485             0.083428
C             2.800000            -9.699485             0.035662
C             3.500000           -10.911920             0.099459
C             4.900000           -10.911920             0.000483
C             5.600000           -12.124356             0.089925
C             7.000000           -12.124356             0.022293
H             7.550000           -13.076984             0.023694
C            -9.100000            -3.637307             0.054308
C            -9.800000            -4.849742             0.088079
C            -9.100000            -6.062178             0.062824
C            -7.700000            -6.062178             0.036956
H            -9.650000            -2.684679             0.093306
H           -10.900000            -4.849742             0.040318
H            -9.650000            -7.014806             0.007678
C            -7.000000            -7.274613             0.004799
C            -5.600000            -7.274613             0.003644
H            -7.550000            -8.227241             0.085159
C            -4.900000            -8.487049             0.098936
C            -3.500000            -8.487049             0.015088
H            -5.450000            -9.439677             0.048189
C            -2.800000            -9.699485             0.089468
C            -1.400000            -9.699485             0.039408
H            -3.350000           -10.652112             0.032860
C            -0.700000           -10.911920             0.082571
C             0.700000           -10.911920             0.051534
H            -1.250000           -11.864548             0.078841
C             1.400000           -12.124356             0.051786
C             2.800000           -12.124356             0.033123
H             0.850000           -13.076984             0.092273
C             3.500000           -13.336791             0.070349
C             4.900000           -13.336791             0.003497
H             2.950000           -14.289419             0.089306
H             5.450000           -14.289419             0.097154
