120
isomero_24_15
C             0.700000             1.212436             0.065158
C            -0.700000             1.212436             0.097945
C            -1.400000             0.000000             0.050294
C            -0.700000            -1.212436             0.031723
C             0.700000            -1.212436             0.099000
C             1.400000            -0.000000             0.079103
H             1.250000             2.165064             0.014984
H            -1.250000             2.165064             0.015581
C             2.800000             0.000000             0.024645
C             1.400000            -2.424871             0.054766
N             2.800000            -2.424871             0.053431
C             3.500000            -1.212436             0.068572
H             3.350000             0.952628             0.092365
C             4.900000            -1.212436             0.066223
B             3.500000            -3.637307             0.025895
C             4.900000            -3.637307             0.035687
C             5.600000            -2.424871             0.087339
H             5.450000            -0.259808             0.045916
C             7.000000            -2.424871             0.003288
C             5.600000            -4.849742             0.089067
C             7.000000            -4.849742             0.003821
C             7.700000            -3.637307             0.092782
H             7.550000            -1.472243             0.045341
C             9.100000            -3.637307             0.033521
C             7.700000            -6.062178             0.038716
C             9.100000            -6.062178             0.001707
C             9.800000            -4.849742             0.055726
H             9.650000            -2.684679             0.099928
C            11.200000            -4.849742             0.001857
C             9.800000            -7.274613             0.013509
C            11.200000            -7.274613             0.050007
C            11.900000            -6.062178             0.026591
H            11.750000            -3.897114             0.052545
C            13.300000            -6.062178             0.007386
C            11.900000            -8.487049             0.059431
C            13.300000            -8.487049             0.028844
C            14.000000            -7.274613             0.020064
H            13.850000            -5.109550             0.077528
H            13.850000            -9.439677             0.001276
H            15.100000            -7.274613             0.072185
C            -2.800000             0.000000             0.030233
C            -3.500000            -1.212436             0.001852
C            -2.800000            -2.424871             0.034956
C            -1.400000            -2.424871             0.071298
H            -3.350000             0.952628             0.097240
C            -0.700000            -3.637307             0.064814
C             0.700000            -3.637307             0.014883
C             1.400000            -4.849742             0.042629
C             2.800000            -4.849742             0.077897
C             3.500000            -6.062178             0.044067
C             4.900000            -6.062178             0.020563
C             5.600000            -7.274613             0.080807
C             7.000000            -7.274613             0.021492
C             7.700000            -8.487049             0.091160
C             9.100000            -8.487049             0.093012
C             9.800000            -9.699485             0.099088
C            11.200000            -9.699485             0.067443
H            11.750000           -10.652112             0.095555
C            -4.900000            -1.212436             0.064657
C            -5.600000            -2.424871             0.010433
C            -4.900000            -3.637307             0.009179
C            -3.500000            -3.637307             0.058390
H            -5.450000            -0.259808             0.083318
C            -2.800000            -4.849742             0.001170
C            -1.400000            -4.849742             0.096563
C            -0.700000            -6.062178             0.029433
C             0.700000            -6.062178             0.034271
C             1.400000            -7.274613             0.064883
C             2.800000            -7.274613             0.081793
C             3.500000            -8.487049             0.091780
C             4.900000            -8.487049             0.003637
C             5.600000            -9.699485             0.077257
C             7.000000            -9.699485             0.007046
C             7.700000           -10.911920             0.001111
C             9.100000           -10.911920             0.041360
H             9.650000           -11.864548             0.070507
C            -7.000000            -2.424871             0.017896
C            -7.700000            -3.637307             0.047111
C            -7.000000            -4.849742             0.024336
C            -5.600000            -4.849742             0.069828
H            -7.550000            -1.472243             0.050225
C            -4.900000            -6.062178             0.038329
C            -3.500000            -6.062178             0.014560
C            -2.800000            -7.274613             0.074951
C            -1.400000            -7.274613             0.002074
C            -0.700000            -8.487049             0.096667
C             0.700000            -8.487049             0.078243
C             1.400000            -9.699485             0.029293
C             2.800000            -9.699485             0.001273
C             3.500000           -10.911920             0.057892
C             4.900000           -10.911920             0.023118
C             5.600000           -12.124356             0.087909
C             7.000000           -12.124356             0.004107
H             7.550000           -13.076984             0.093066
C            -9.100000            -3.637307             0.013357
C            -9.800000            -4.849742             0.055930
C            -9.100000            -6.062178             0.032810
C            -7.700000            -6.062178             0.026107
H            -9.650000            -2.684679             0.058517
H           -10.900000            -4.849742             0.007493
H            -9.650000            -7.014806             0.097573
C            -7.000000            -7.274613             0.024733
C            -5.600000            -7.274613             0.008744
H            -7.550000            -8.227241             0.052138
C            -4.900000            -8.487049             0.076338
C            -3.500000            -8.487049             0.072302
H            -5.450000            -9.439677             0.010250
C            -2.800000            -9.699485             0.045793
C            -1.400000            -9.699485             0.085338
H            -3.350000           -10.652112             0.048729
C            -0.700000           -10.911920             0.008252
C             0.700000           -10.911920             0.032966
H            -1.250000           -11.864548             0.005895
C             1.400000           -12.124356             0.061064
C             2.800000           -12.124356             0.002717
H             0.850000           -13.076984             0.010518
C             3.500000           -13.336791             0.059336
C             4.900000           -13.336791             0.023531
H             2.950000           -14.289419             0.095304
H             5.450000           -14.289419             0.079911
