120
isomero_39_28
C             0.700000             1.212436             0.016500
C            -0.700000             1.212436             0.027100
C            -1.400000             0.000000             0.038274
C            -0.700000            -1.212436             0.090131
C             0.700000            -1.212436             0.054399
C             1.400000            -0.000000             0.015281
H             1.250000             2.165064             0.064513
H            -1.250000             2.165064             0.072696
C             2.800000             0.000000             0.015814
C             1.400000            -2.424871             0.088087
C             2.800000            -2.424871             0.063526
C             3.500000            -1.212436             0.083972
H             3.350000             0.952628             0.048818
C             4.900000            -1.212436             0.096478
C             3.500000            -3.637307             0.061841
C             4.900000            -3.637307             0.046772
C             5.600000            -2.424871             0.014011
H             5.450000            -0.259808             0.077705
C             7.000000            -2.424871             0.067455
C             5.600000            -4.849742             0.018956
C             7.000000            -4.849742             0.085063
C             7.700000            -3.637307             0.058129
H             7.550000            -1.472243             0.095425
C             9.100000            -3.637307             0.050421
C             7.700000            -6.062178             0.087948
C             9.100000            -6.062178             0.070233
C             9.800000            -4.849742             0.095475
H             9.650000            -2.684679             0.040590
C            11.200000            -4.849742             0.085852
C             9.800000            -7.274613             0.023783
C            11.200000            -7.274613             0.097953
C            11.900000            -6.062178             0.087480
H            11.750000            -3.897114             0.059578
C            13.300000            -6.062178             0.017360
C            11.900000            -8.487049             0.074239
C            13.300000            -8.487049             0.007570
C            14.000000            -7.274613             0.087203
H            13.850000            -5.109550             0.092061
H            13.850000            -9.439677             0.017059
H            15.100000            -7.274613             0.074166
C            -2.800000             0.000000             0.076582
C            -3.500000            -1.212436             0.005210
C            -2.800000            -2.424871             0.068370
C            -1.400000            -2.424871             0.027617
H            -3.350000             0.952628             0.068534
C            -0.700000            -3.637307             0.067601
C             0.700000            -3.637307             0.015631
C             1.400000            -4.849742             0.034390
C             2.800000            -4.849742             0.034972
C             3.500000            -6.062178             0.023146
C             4.900000            -6.062178             0.099603
C             5.600000            -7.274613             0.004352
C             7.000000            -7.274613             0.020755
C             7.700000            -8.487049             0.033795
C             9.100000            -8.487049             0.080074
C             9.800000            -9.699485             0.046346
C            11.200000            -9.699485             0.066150
H            11.750000           -10.652112             0.084003
C            -4.900000            -1.212436             0.085483
C            -5.600000            -2.424871             0.047178
N            -4.900000            -3.637307             0.015689
C            -3.500000            -3.637307             0.062325
H            -5.450000            -0.259808             0.092601
C            -2.800000            -4.849742             0.058047
C            -1.400000            -4.849742             0.007109
C            -0.700000            -6.062178             0.039302
C             0.700000            -6.062178             0.037396
C             1.400000            -7.274613             0.072495
C             2.800000            -7.274613             0.032267
C             3.500000            -8.487049             0.062468
C             4.900000            -8.487049             0.030402
C             5.600000            -9.699485             0.007006
C             7.000000            -9.699485             0.055727
C             7.700000           -10.911920             0.068245
C             9.100000           -10.911920             0.084462
H             9.650000           -11.864548             0.040006
C            -7.000000            -2.424871             0.042055
C            -7.700000            -3.637307             0.007724
C            -7.000000            -4.849742             0.081948
B            -5.600000            -4.849742             0.020326
H            -7.550000            -1.472243             0.006313
C            -4.900000            -6.062178             0.055138
C            -3.500000            -6.062178             0.054682
C            -2.800000            -7.274613             0.087933
C            -1.400000            -7.274613             0.006065
C            -0.700000            -8.487049             0.063143
C             0.700000            -8.487049             0.055156
C             1.400000            -9.699485             0.082243
C             2.800000            -9.699485             0.095784
C             3.500000           -10.911920             0.096870
C             4.900000           -10.911920             0.001183
C             5.600000           -12.124356             0.000927
C             7.000000           -12.124356             0.099998
H             7.550000           -13.076984             0.091557
C            -9.100000            -3.637307             0.029515
C            -9.800000            -4.849742             0.023630
C            -9.100000            -6.062178             0.012538
C            -7.700000            -6.062178             0.063617
H            -9.650000            -2.684679             0.073497
H           -10.900000            -4.849742             0.079471
H            -9.650000            -7.014806             0.015619
C            -7.000000            -7.274613             0.022557
C            -5.600000            -7.274613             0.048726
H            -7.550000            -8.227241             0.000704
C            -4.900000            -8.487049             0.085306
C            -3.500000            -8.487049             0.068651
H            -5.450000            -9.439677             0.063220
C            -2.800000            -9.699485             0.044985
C            -1.400000            -9.699485             0.090734
H            -3.350000           -10.652112             0.074331
C            -0.700000           -10.911920             0.014251
C             0.700000           -10.911920             0.021268
H            -1.250000           -11.864548             0.090115
C             1.400000           -12.124356             0.017642
C             2.800000           -12.124356             0.067242
H             0.850000           -13.076984             0.099257
C             3.500000           -13.336791             0.040530
C             4.900000           -13.336791             0.076450
H             2.950000           -14.289419             0.095316
H             5.450000           -14.289419             0.014141
