120
isomero_54_65
C             0.700000             1.212436             0.029577
C            -0.700000             1.212436             0.029701
C            -1.400000             0.000000             0.060356
C            -0.700000            -1.212436             0.043729
C             0.700000            -1.212436             0.081607
C             1.400000            -0.000000             0.076015
H             1.250000             2.165064             0.017342
H            -1.250000             2.165064             0.040635
C             2.800000             0.000000             0.056144
C             1.400000            -2.424871             0.037424
C             2.800000            -2.424871             0.074567
C             3.500000            -1.212436             0.025432
H             3.350000             0.952628             0.076112
C             4.900000            -1.212436             0.077887
C             3.500000            -3.637307             0.001342
C             4.900000            -3.637307             0.001541
C             5.600000            -2.424871             0.074121
H             5.450000            -0.259808             0.002904
C             7.000000            -2.424871             0.037995
C             5.600000            -4.849742             0.007684
C             7.000000            -4.849742             0.006725
C             7.700000            -3.637307             0.034488
H             7.550000            -1.472243             0.052859
C             9.100000            -3.637307             0.019901
C             7.700000            -6.062178             0.095942
C             9.100000            -6.062178             0.048011
C             9.800000            -4.849742             0.040868
H             9.650000            -2.684679             0.060275
C            11.200000            -4.849742             0.071503
C             9.800000            -7.274613             0.022850
C            11.200000            -7.274613             0.082271
C            11.900000            -6.062178             0.045067
H            11.750000            -3.897114             0.007840
C            13.300000            -6.062178             0.058495
C            11.900000            -8.487049             0.098031
N            13.300000            -8.487049             0.002720
B            14.000000            -7.274613             0.081767
H            13.850000            -5.109550             0.057565
H            13.850000            -9.439677             0.011626
H            15.100000            -7.274613             0.019522
C            -2.800000             0.000000             0.093690
C            -3.500000            -1.212436             0.042542
C            -2.800000            -2.424871             0.058963
C            -1.400000            -2.424871             0.093658
H            -3.350000             0.952628             0.050170
C            -0.700000            -3.637307             0.063415
C             0.700000            -3.637307             0.032534
C             1.400000            -4.849742             0.039722
C             2.800000            -4.849742             0.052571
C             3.500000            -6.062178             0.043623
C             4.900000            -6.062178             0.015990
C             5.600000            -7.274613             0.074495
C             7.000000            -7.274613             0.060882
C             7.700000            -8.487049             0.010697
C             9.100000            -8.487049             0.036487
C             9.800000            -9.699485             0.018946
C            11.200000            -9.699485             0.050292
H            11.750000           -10.652112             0.094213
C            -4.900000            -1.212436             0.005446
C            -5.600000            -2.424871             0.012606
C            -4.900000            -3.637307             0.078982
C            -3.500000            -3.637307             0.096545
H            -5.450000            -0.259808             0.036159
C            -2.800000            -4.849742             0.010345
C            -1.400000            -4.849742             0.020117
C            -0.700000            -6.062178             0.043056
C             0.700000            -6.062178             0.068374
C             1.400000            -7.274613             0.016698
C             2.800000            -7.274613             0.036636
C             3.500000            -8.487049             0.068048
C             4.900000            -8.487049             0.063772
C             5.600000            -9.699485             0.096158
C             7.000000            -9.699485             0.087638
C             7.700000           -10.911920             0.094326
C             9.100000           -10.911920             0.024989
H             9.650000           -11.864548             0.087482
C            -7.000000            -2.424871             0.019725
C            -7.700000            -3.637307             0.019902
C            -7.000000            -4.849742             0.074402
C            -5.600000            -4.849742             0.069280
H            -7.550000            -1.472243             0.038006
C            -4.900000            -6.062178             0.072920
C            -3.500000            -6.062178             0.075547
C            -2.800000            -7.274613             0.061468
C            -1.400000            -7.274613             0.017790
C            -0.700000            -8.487049             0.043263
C             0.700000            -8.487049             0.009081
C             1.400000            -9.699485             0.041529
C             2.800000            -9.699485             0.031054
C             3.500000           -10.911920             0.043995
C             4.900000           -10.911920             0.036140
C             5.600000           -12.124356             0.045442
C             7.000000           -12.124356             0.080905
H             7.550000           -13.076984             0.045445
C            -9.100000            -3.637307             0.070815
C            -9.800000            -4.849742             0.085455
C            -9.100000            -6.062178             0.098155
C            -7.700000            -6.062178             0.093381
H            -9.650000            -2.684679             0.013782
H           -10.900000            -4.849742             0.013706
H            -9.650000            -7.014806             0.015859
C            -7.000000            -7.274613             0.006939
C            -5.600000            -7.274613             0.073317
H            -7.550000            -8.227241             0.033100
C            -4.900000            -8.487049             0.049008
C            -3.500000            -8.487049             0.066252
H            -5.450000            -9.439677             0.096965
C            -2.800000            -9.699485             0.065612
C            -1.400000            -9.699485             0.011541
H            -3.350000           -10.652112             0.012837
C            -0.700000           -10.911920             0.033984
C             0.700000           -10.911920             0.056654
H            -1.250000           -11.864548             0.083896
C             1.400000           -12.124356             0.019044
C             2.800000           -12.124356             0.073750
H             0.850000           -13.076984             0.014876
C             3.500000           -13.336791             0.027859
C             4.900000           -13.336791             0.067345
H             2.950000           -14.289419             0.011679
H             5.450000           -14.289419             0.089026
