120
isomero_22_13
C             0.700000             1.212436             0.016158
C            -0.700000             1.212436             0.019672
C            -1.400000             0.000000             0.034579
C            -0.700000            -1.212436             0.084403
C             0.700000            -1.212436             0.064011
C             1.400000            -0.000000             0.066201
H             1.250000             2.165064             0.008648
H            -1.250000             2.165064             0.090635
C             2.800000             0.000000             0.004909
C             1.400000            -2.424871             0.029999
C             2.800000            -2.424871             0.060493
C             3.500000            -1.212436             0.021108
H             3.350000             0.952628             0.078515
C             4.900000            -1.212436             0.051173
C             3.500000            -3.637307             0.068596
C             4.900000            -3.637307             0.016222
C             5.600000            -2.424871             0.028412
H             5.450000            -0.259808             0.041945
N             7.000000            -2.424871             0.063969
C             5.600000            -4.849742             0.024388
C             7.000000            -4.849742             0.062714
B             7.700000            -3.637307             0.058551
H             7.550000            -1.472243             0.079685
C             9.100000            -3.637307             0.089159
C             7.700000            -6.062178             0.075010
C             9.100000            -6.062178             0.078172
C             9.800000            -4.849742             0.071002
H             9.650000            -2.684679             0.025155
C            11.200000            -4.849742             0.036422
C             9.800000            -7.274613             0.092313
C            11.200000            -7.274613             0.075138
C            11.900000            -6.062178             0.024969
H            11.750000            -3.897114             0.064211
C            13.300000            -6.062178             0.049036
C            11.900000            -8.487049             0.060921
C            13.300000            -8.487049             0.031421
C            14.000000            -7.274613             0.072814
H            13.850000            -5.109550             0.030030
H            13.850000            -9.439677             0.040894
H            15.100000            -7.274613             0.055298
C            -2.800000             0.000000             0.012074
C            -3.500000            -1.212436             0.014516
C            -2.800000            -2.424871             0.086138
C            -1.400000            -2.424871             0.006094
H            -3.350000             0.952628             0.016050
C            -0.700000            -3.637307             0.079046
C             0.700000            -3.637307             0.052863
C             1.400000            -4.849742             0.055151
C             2.800000            -4.849742             0.056480
C             3.500000            -6.062178             0.048821
C             4.900000            -6.062178             0.084803
C             5.600000            -7.274613             0.001669
C             7.000000            -7.274613             0.039852
C             7.700000            -8.487049             0.005192
C             9.100000            -8.487049             0.046212
C             9.800000            -9.699485             0.095439
C            11.200000            -9.699485             0.056491
H            11.750000           -10.652112             0.036020
C            -4.900000            -1.212436             0.011710
C            -5.600000            -2.424871             0.008551
C            -4.900000            -3.637307             0.018175
C            -3.500000            -3.637307             0.079989
H            -5.450000            -0.259808             0.035402
C            -2.800000            -4.849742             0.015750
C            -1.400000            -4.849742             0.070370
C            -0.700000            -6.062178             0.009932
C             0.700000            -6.062178             0.074221
C             1.400000            -7.274613             0.034810
C             2.800000            -7.274613             0.014242
C             3.500000            -8.487049             0.049374
C             4.900000            -8.487049             0.075103
C             5.600000            -9.699485             0.087910
C             7.000000            -9.699485             0.078213
C             7.700000           -10.911920             0.041726
C             9.100000           -10.911920             0.004318
H             9.650000           -11.864548             0.051249
C            -7.000000            -2.424871             0.043628
C            -7.700000            -3.637307             0.043571
C            -7.000000            -4.849742             0.024436
C            -5.600000            -4.849742             0.086591
H            -7.550000            -1.472243             0.011757
C            -4.900000            -6.062178             0.079307
C            -3.500000            -6.062178             0.024698
C            -2.800000            -7.274613             0.080024
C            -1.400000            -7.274613             0.082023
C            -0.700000            -8.487049             0.084471
C             0.700000            -8.487049             0.061875
C             1.400000            -9.699485             0.038881
C             2.800000            -9.699485             0.002799
C             3.500000           -10.911920             0.063717
C             4.900000           -10.911920             0.008936
C             5.600000           -12.124356             0.057372
C             7.000000           -12.124356             0.063283
H             7.550000           -13.076984             0.074349
C            -9.100000            -3.637307             0.081394
C            -9.800000            -4.849742             0.076156
C            -9.100000            -6.062178             0.000851
C            -7.700000            -6.062178             0.079263
H            -9.650000            -2.684679             0.091982
H           -10.900000            -4.849742             0.078054
H            -9.650000            -7.014806             0.091174
C            -7.000000            -7.274613             0.097940
C            -5.600000            -7.274613             0.068038
H            -7.550000            -8.227241             0.064133
C            -4.900000            -8.487049             0.085802
C            -3.500000            -8.487049             0.040207
H            -5.450000            -9.439677             0.012634
C            -2.800000            -9.699485             0.041685
C            -1.400000            -9.699485             0.007276
H            -3.350000           -10.652112             0.007262
C            -0.700000           -10.911920             0.013856
C             0.700000           -10.911920             0.051639
H            -1.250000           -11.864548             0.033029
C             1.400000           -12.124356             0.079554
C             2.800000           -12.124356             0.045856
H             0.850000           -13.076984             0.058451
C             3.500000           -13.336791             0.023133
C             4.900000           -13.336791             0.036985
H             2.950000           -14.289419             0.063894
H             5.450000           -14.289419             0.087633
