120
isomero_3_4
C             0.700000             1.212436             0.058542
C            -0.700000             1.212436             0.096195
C            -1.400000             0.000000             0.037978
C            -0.700000            -1.212436             0.007389
C             0.700000            -1.212436             0.060195
N             1.400000            -0.000000             0.014223
H             1.250000             2.165064             0.032717
H            -1.250000             2.165064             0.085105
B             2.800000             0.000000             0.024000
C             1.400000            -2.424871             0.050100
C             2.800000            -2.424871             0.078318
C             3.500000            -1.212436             0.082525
H             3.350000             0.952628             0.017037
C             4.900000            -1.212436             0.077032
C             3.500000            -3.637307             0.090765
C             4.900000            -3.637307             0.074498
C             5.600000            -2.424871             0.060768
H             5.450000            -0.259808             0.061474
C             7.000000            -2.424871             0.050072
C             5.600000            -4.849742             0.000224
C             7.000000            -4.849742             0.076636
C             7.700000            -3.637307             0.042701
H             7.550000            -1.472243             0.042481
C             9.100000            -3.637307             0.024941
C             7.700000            -6.062178             0.007306
C             9.100000            -6.062178             0.041692
C             9.800000            -4.849742             0.073332
H             9.650000            -2.684679             0.050518
C            11.200000            -4.849742             0.032008
C             9.800000            -7.274613             0.007726
C            11.200000            -7.274613             0.055474
C            11.900000            -6.062178             0.077580
H            11.750000            -3.897114             0.045580
C            13.300000            -6.062178             0.074714
C            11.900000            -8.487049             0.055806
C            13.300000            -8.487049             0.092034
C            14.000000            -7.274613             0.008287
H            13.850000            -5.109550             0.093470
H            13.850000            -9.439677             0.025329
H            15.100000            -7.274613             0.098228
C            -2.800000             0.000000             0.051366
C            -3.500000            -1.212436             0.031745
C            -2.800000            -2.424871             0.059208
C            -1.400000            -2.424871             0.073906
H            -3.350000             0.952628             0.018865
C            -0.700000            -3.637307             0.038606
C             0.700000            -3.637307             0.060901
C             1.400000            -4.849742             0.005636
C             2.800000            -4.849742             0.005438
C             3.500000            -6.062178             0.076906
C             4.900000            -6.062178             0.084997
C             5.600000            -7.274613             0.050615
C             7.000000            -7.274613             0.007778
C             7.700000            -8.487049             0.084788
C             9.100000            -8.487049             0.062221
C             9.800000            -9.699485             0.054641
C            11.200000            -9.699485             0.036188
H            11.750000           -10.652112             0.005199
C            -4.900000            -1.212436             0.053207
C            -5.600000            -2.424871             0.079559
C            -4.900000            -3.637307             0.002400
C            -3.500000            -3.637307             0.021065
H            -5.450000            -0.259808             0.084590
C            -2.800000            -4.849742             0.087408
C            -1.400000            -4.849742             0.014640
C            -0.700000            -6.062178             0.021571
C             0.700000            -6.062178             0.049301
C             1.400000            -7.274613             0.036123
C             2.800000            -7.274613             0.017620
C             3.500000            -8.487049             0.002856
C             4.900000            -8.487049             0.025198
C             5.600000            -9.699485             0.043898
C             7.000000            -9.699485             0.070440
C             7.700000           -10.911920             0.014430
C             9.100000           -10.911920             0.012346
H             9.650000           -11.864548             0.079686
C            -7.000000            -2.424871             0.060470
C            -7.700000            -3.637307             0.000760
C            -7.000000            -4.849742             0.035294
C            -5.600000            -4.849742             0.043186
H            -7.550000            -1.472243             0.094083
C            -4.900000            -6.062178             0.029730
C            -3.500000            -6.062178             0.018839
C            -2.800000            -7.274613             0.074802
C            -1.400000            -7.274613             0.011862
C            -0.700000            -8.487049             0.029541
C             0.700000            -8.487049             0.040332
C             1.400000            -9.699485             0.029676
C             2.800000            -9.699485             0.092981
C             3.500000           -10.911920             0.083206
C             4.900000           -10.911920             0.050376
C             5.600000           -12.124356             0.032134
C             7.000000           -12.124356             0.027227
H             7.550000           -13.076984             0.028410
C            -9.100000            -3.637307             0.098881
C            -9.800000            -4.849742             0.064858
C            -9.100000            -6.062178             0.076936
C            -7.700000            -6.062178             0.090289
H            -9.650000            -2.684679             0.049199
H           -10.900000            -4.849742             0.017469
H            -9.650000            -7.014806             0.034407
C            -7.000000            -7.274613             0.029498
C            -5.600000            -7.274613             0.074197
H            -7.550000            -8.227241             0.060596
C            -4.900000            -8.487049             0.028676
C            -3.500000            -8.487049             0.055380
H            -5.450000            -9.439677             0.083597
C            -2.800000            -9.699485             0.054894
C            -1.400000            -9.699485             0.096503
H            -3.350000           -10.652112             0.077634
C            -0.700000           -10.911920             0.019424
C             0.700000           -10.911920             0.063095
H            -1.250000           -11.864548             0.064812
C             1.400000           -12.124356             0.027494
C             2.800000           -12.124356             0.068298
H             0.850000           -13.076984             0.034628
C             3.500000           -13.336791             0.087977
C             4.900000           -13.336791             0.099389
H             2.950000           -14.289419             0.007121
H             5.450000           -14.289419             0.099143
