120
isomero_20_19
C             0.700000             1.212436             0.096691
C            -0.700000             1.212436             0.099465
C            -1.400000             0.000000             0.079295
C            -0.700000            -1.212436             0.037822
C             0.700000            -1.212436             0.064920
C             1.400000            -0.000000             0.059956
H             1.250000             2.165064             0.002325
H            -1.250000             2.165064             0.046353
C             2.800000             0.000000             0.012302
C             1.400000            -2.424871             0.042785
C             2.800000            -2.424871             0.019198
C             3.500000            -1.212436             0.071727
H             3.350000             0.952628             0.030759
C             4.900000            -1.212436             0.010632
C             3.500000            -3.637307             0.082942
C             4.900000            -3.637307             0.039302
C             5.600000            -2.424871             0.093617
H             5.450000            -0.259808             0.062143
C             7.000000            -2.424871             0.003434
C             5.600000            -4.849742             0.061482
C             7.000000            -4.849742             0.087701
C             7.700000            -3.637307             0.063118
H             7.550000            -1.472243             0.018859
C             9.100000            -3.637307             0.097310
C             7.700000            -6.062178             0.044724
C             9.100000            -6.062178             0.013862
C             9.800000            -4.849742             0.070197
H             9.650000            -2.684679             0.013378
C            11.200000            -4.849742             0.066757
C             9.800000            -7.274613             0.023730
C            11.200000            -7.274613             0.098622
C            11.900000            -6.062178             0.022288
H            11.750000            -3.897114             0.039722
C            13.300000            -6.062178             0.077361
C            11.900000            -8.487049             0.084792
C            13.300000            -8.487049             0.027797
C            14.000000            -7.274613             0.087523
H            13.850000            -5.109550             0.044195
H            13.850000            -9.439677             0.055379
H            15.100000            -7.274613             0.017306
C            -2.800000             0.000000             0.038781
C            -3.500000            -1.212436             0.012489
C            -2.800000            -2.424871             0.072061
C            -1.400000            -2.424871             0.099364
H            -3.350000             0.952628             0.036635
C            -0.700000            -3.637307             0.016004
C             0.700000            -3.637307             0.063908
C             1.400000            -4.849742             0.078471
C             2.800000            -4.849742             0.053792
C             3.500000            -6.062178             0.005286
C             4.900000            -6.062178             0.008910
C             5.600000            -7.274613             0.084652
C             7.000000            -7.274613             0.019508
C             7.700000            -8.487049             0.001238
C             9.100000            -8.487049             0.037475
C             9.800000            -9.699485             0.099084
C            11.200000            -9.699485             0.031442
H            11.750000           -10.652112             0.021123
C            -4.900000            -1.212436             0.062468
N            -5.600000            -2.424871             0.099842
C            -4.900000            -3.637307             0.017125
C            -3.500000            -3.637307             0.008943
H            -5.450000            -0.259808             0.014866
C            -2.800000            -4.849742             0.040098
C            -1.400000            -4.849742             0.061691
C            -0.700000            -6.062178             0.091285
C             0.700000            -6.062178             0.076489
C             1.400000            -7.274613             0.016150
C             2.800000            -7.274613             0.082149
C             3.500000            -8.487049             0.056659
C             4.900000            -8.487049             0.057709
C             5.600000            -9.699485             0.005172
C             7.000000            -9.699485             0.061387
C             7.700000           -10.911920             0.066337
C             9.100000           -10.911920             0.084291
H             9.650000           -11.864548             0.039458
B            -7.000000            -2.424871             0.023816
C            -7.700000            -3.637307             0.043269
C            -7.000000            -4.849742             0.088975
C            -5.600000            -4.849742             0.021028
H            -7.550000            -1.472243             0.089559
C            -4.900000            -6.062178             0.092982
C            -3.500000            -6.062178             0.009358
C            -2.800000            -7.274613             0.062632
C            -1.400000            -7.274613             0.073278
C            -0.700000            -8.487049             0.065796
C             0.700000            -8.487049             0.005866
C             1.400000            -9.699485             0.039744
C             2.800000            -9.699485             0.008951
C             3.500000           -10.911920             0.094594
C             4.900000           -10.911920             0.094817
C             5.600000           -12.124356             0.092505
C             7.000000           -12.124356             0.036874
H             7.550000           -13.076984             0.005932
C            -9.100000            -3.637307             0.062246
C            -9.800000            -4.849742             0.075984
C            -9.100000            -6.062178             0.093582
C            -7.700000            -6.062178             0.028817
H            -9.650000            -2.684679             0.081000
H           -10.900000            -4.849742             0.012531
H            -9.650000            -7.014806             0.040658
C            -7.000000            -7.274613             0.087450
C            -5.600000            -7.274613             0.070438
H            -7.550000            -8.227241             0.081523
C            -4.900000            -8.487049             0.054024
C            -3.500000            -8.487049             0.022972
H            -5.450000            -9.439677             0.086048
C            -2.800000            -9.699485             0.089724
C            -1.400000            -9.699485             0.002085
H            -3.350000           -10.652112             0.065057
C            -0.700000           -10.911920             0.011377
C             0.700000           -10.911920             0.015845
H            -1.250000           -11.864548             0.048872
C             1.400000           -12.124356             0.074108
C             2.800000           -12.124356             0.066965
H             0.850000           -13.076984             0.054072
C             3.500000           -13.336791             0.000877
C             4.900000           -13.336791             0.068041
H             2.950000           -14.289419             0.086208
H             5.450000           -14.289419             0.054676
