120
isomero_27_18
C             0.700000             1.212436             0.060806
C            -0.700000             1.212436             0.028957
C            -1.400000             0.000000             0.045648
C            -0.700000            -1.212436             0.041803
C             0.700000            -1.212436             0.082591
C             1.400000            -0.000000             0.002575
H             1.250000             2.165064             0.067823
H            -1.250000             2.165064             0.015827
C             2.800000             0.000000             0.031575
C             1.400000            -2.424871             0.051362
C             2.800000            -2.424871             0.021185
C             3.500000            -1.212436             0.012891
H             3.350000             0.952628             0.058593
C             4.900000            -1.212436             0.083416
C             3.500000            -3.637307             0.038705
C             4.900000            -3.637307             0.046769
C             5.600000            -2.424871             0.041419
H             5.450000            -0.259808             0.064394
C             7.000000            -2.424871             0.016581
C             5.600000            -4.849742             0.057983
C             7.000000            -4.849742             0.080517
C             7.700000            -3.637307             0.026677
H             7.550000            -1.472243             0.021895
C             9.100000            -3.637307             0.085106
C             7.700000            -6.062178             0.090614
C             9.100000            -6.062178             0.028529
C             9.800000            -4.849742             0.006031
H             9.650000            -2.684679             0.006742
C            11.200000            -4.849742             0.053816
C             9.800000            -7.274613             0.007982
C            11.200000            -7.274613             0.036061
C            11.900000            -6.062178             0.036262
H            11.750000            -3.897114             0.021777
C            13.300000            -6.062178             0.004355
C            11.900000            -8.487049             0.005041
C            13.300000            -8.487049             0.036036
C            14.000000            -7.274613             0.035379
H            13.850000            -5.109550             0.021441
H            13.850000            -9.439677             0.072363
H            15.100000            -7.274613             0.025047
C            -2.800000             0.000000             0.090110
C            -3.500000            -1.212436             0.093387
N            -2.800000            -2.424871             0.090364
C            -1.400000            -2.424871             0.021855
H            -3.350000             0.952628             0.054662
C            -0.700000            -3.637307             0.079563
C             0.700000            -3.637307             0.016866
C             1.400000            -4.849742             0.086656
C             2.800000            -4.849742             0.066972
C             3.500000            -6.062178             0.089837
C             4.900000            -6.062178             0.046999
C             5.600000            -7.274613             0.010862
C             7.000000            -7.274613             0.069984
C             7.700000            -8.487049             0.027522
C             9.100000            -8.487049             0.009553
C             9.800000            -9.699485             0.041685
C            11.200000            -9.699485             0.002819
H            11.750000           -10.652112             0.038916
C            -4.900000            -1.212436             0.019422
C            -5.600000            -2.424871             0.007724
C            -4.900000            -3.637307             0.071086
B            -3.500000            -3.637307             0.043875
H            -5.450000            -0.259808             0.059159
C            -2.800000            -4.849742             0.053576
C            -1.400000            -4.849742             0.015473
C            -0.700000            -6.062178             0.028311
C             0.700000            -6.062178             0.097317
C             1.400000            -7.274613             0.062842
C             2.800000            -7.274613             0.033300
C             3.500000            -8.487049             0.027502
C             4.900000            -8.487049             0.014218
C             5.600000            -9.699485             0.032467
C             7.000000            -9.699485             0.061080
C             7.700000           -10.911920             0.022832
C             9.100000           -10.911920             0.083562
H             9.650000           -11.864548             0.071826
C            -7.000000            -2.424871             0.066534
C            -7.700000            -3.637307             0.084172
C            -7.000000            -4.849742             0.024995
C            -5.600000            -4.849742             0.008724
H            -7.550000            -1.472243             0.089346
C            -4.900000            -6.062178             0.002695
C            -3.500000            -6.062178             0.008435
C            -2.800000            -7.274613             0.097798
C            -1.400000            -7.274613             0.014646
C            -0.700000            -8.487049             0.032392
C             0.700000            -8.487049             0.065730
C             1.400000            -9.699485             0.096984
C             2.800000            -9.699485             0.082192
C             3.500000           -10.911920             0.069932
C             4.900000           -10.911920             0.088235
C             5.600000           -12.124356             0.066755
C             7.000000           -12.124356             0.066976
H             7.550000           -13.076984             0.061777
C            -9.100000            -3.637307             0.005223
C            -9.800000            -4.849742             0.026115
C            -9.100000            -6.062178             0.072148
C            -7.700000            -6.062178             0.092991
H            -9.650000            -2.684679             0.071025
H           -10.900000            -4.849742             0.064647
H            -9.650000            -7.014806             0.090531
C            -7.000000            -7.274613             0.016514
C            -5.600000            -7.274613             0.095211
H            -7.550000            -8.227241             0.048398
C            -4.900000            -8.487049             0.058326
C            -3.500000            -8.487049             0.072698
H            -5.450000            -9.439677             0.017661
C            -2.800000            -9.699485             0.098081
C            -1.400000            -9.699485             0.027483
H            -3.350000           -10.652112             0.098188
C            -0.700000           -10.911920             0.036535
C             0.700000           -10.911920             0.045518
H            -1.250000           -11.864548             0.081839
C             1.400000           -12.124356             0.045485
C             2.800000           -12.124356             0.044880
H             0.850000           -13.076984             0.076489
C             3.500000           -13.336791             0.021101
C             4.900000           -13.336791             0.082270
H             2.950000           -14.289419             0.021179
H             5.450000           -14.289419             0.063287
