120
isomero_2_1
N             0.700000             1.212436             0.019199
B            -0.700000             1.212436             0.099256
C            -1.400000             0.000000             0.019928
C            -0.700000            -1.212436             0.022961
C             0.700000            -1.212436             0.032424
C             1.400000            -0.000000             0.009067
H             1.250000             2.165064             0.013085
H            -1.250000             2.165064             0.040843
C             2.800000             0.000000             0.060412
C             1.400000            -2.424871             0.070435
C             2.800000            -2.424871             0.040736
C             3.500000            -1.212436             0.039690
H             3.350000             0.952628             0.072360
C             4.900000            -1.212436             0.012845
C             3.500000            -3.637307             0.019058
C             4.900000            -3.637307             0.058966
C             5.600000            -2.424871             0.011474
H             5.450000            -0.259808             0.093700
C             7.000000            -2.424871             0.030952
C             5.600000            -4.849742             0.086286
C             7.000000            -4.849742             0.009368
C             7.700000            -3.637307             0.089974
H             7.550000            -1.472243             0.010095
C             9.100000            -3.637307             0.060104
C             7.700000            -6.062178             0.069849
C             9.100000            -6.062178             0.099425
C             9.800000            -4.849742             0.018789
H             9.650000            -2.684679             0.054094
C            11.200000            -4.849742             0.031352
C             9.800000            -7.274613             0.009663
C            11.200000            -7.274613             0.039511
C            11.900000            -6.062178             0.064456
H            11.750000            -3.897114             0.040812
C            13.300000            -6.062178             0.033523
C            11.900000            -8.487049             0.026930
C            13.300000            -8.487049             0.030255
C            14.000000            -7.274613             0.081275
H            13.850000            -5.109550             0.095465
H            13.850000            -9.439677             0.039376
H            15.100000            -7.274613             0.017425
C            -2.800000             0.000000             0.087032
C            -3.500000            -1.212436             0.058954
C            -2.800000            -2.424871             0.036350
C            -1.400000            -2.424871             0.032507
H            -3.350000             0.952628             0.035554
C            -0.700000            -3.637307             0.044235
C             0.700000            -3.637307             0.058796
C             1.400000            -4.849742             0.024815
C             2.800000            -4.849742             0.064530
C             3.500000            -6.062178             0.042191
C             4.900000            -6.062178             0.061780
C             5.600000            -7.274613             0.045724
C             7.000000            -7.274613             0.072169
C             7.700000            -8.487049             0.048436
C             9.100000            -8.487049             0.096456
C             9.800000            -9.699485             0.012570
C            11.200000            -9.699485             0.095775
H            11.750000           -10.652112             0.016113
C            -4.900000            -1.212436             0.008953
C            -5.600000            -2.424871             0.066079
C            -4.900000            -3.637307             0.091488
C            -3.500000            -3.637307             0.065379
H            -5.450000            -0.259808             0.095341
C            -2.800000            -4.849742             0.044016
C            -1.400000            -4.849742             0.026242
C            -0.700000            -6.062178             0.089482
C             0.700000            -6.062178             0.081181
C             1.400000            -7.274613             0.097060
C             2.800000            -7.274613             0.095000
C             3.500000            -8.487049             0.039339
C             4.900000            -8.487049             0.099257
C             5.600000            -9.699485             0.037722
C             7.000000            -9.699485             0.008627
C             7.700000           -10.911920             0.027260
C             9.100000           -10.911920             0.099905
H             9.650000           -11.864548             0.052319
C            -7.000000            -2.424871             0.028254
C            -7.700000            -3.637307             0.043422
C            -7.000000            -4.849742             0.029897
C            -5.600000            -4.849742             0.068149
H            -7.550000            -1.472243             0.054148
C            -4.900000            -6.062178             0.026619
C            -3.500000            -6.062178             0.083050
C            -2.800000            -7.274613             0.016191
C            -1.400000            -7.274613             0.080553
C            -0.700000            -8.487049             0.017092
C             0.700000            -8.487049             0.021624
C             1.400000            -9.699485             0.021998
C             2.800000            -9.699485             0.069623
C             3.500000           -10.911920             0.049210
C             4.900000           -10.911920             0.011588
C             5.600000           -12.124356             0.073236
C             7.000000           -12.124356             0.014710
H             7.550000           -13.076984             0.091745
C            -9.100000            -3.637307             0.078812
C            -9.800000            -4.849742             0.013328
C            -9.100000            -6.062178             0.058346
C            -7.700000            -6.062178             0.098337
H            -9.650000            -2.684679             0.000534
H           -10.900000            -4.849742             0.013650
H            -9.650000            -7.014806             0.016745
C            -7.000000            -7.274613             0.033196
C            -5.600000            -7.274613             0.039224
H            -7.550000            -8.227241             0.022832
C            -4.900000            -8.487049             0.006919
C            -3.500000            -8.487049             0.017623
H            -5.450000            -9.439677             0.002708
C            -2.800000            -9.699485             0.088740
C            -1.400000            -9.699485             0.003637
H            -3.350000           -10.652112             0.021847
C            -0.700000           -10.911920             0.040661
C             0.700000           -10.911920             0.059595
H            -1.250000           -11.864548             0.045276
C             1.400000           -12.124356             0.014530
C             2.800000           -12.124356             0.069689
H             0.850000           -13.076984             0.026870
C             3.500000           -13.336791             0.025012
C             4.900000           -13.336791             0.018931
H             2.950000           -14.289419             0.077297
H             5.450000           -14.289419             0.071319
