120
isomero_22_33
C             0.700000             1.212436             0.021051
C            -0.700000             1.212436             0.057969
C            -1.400000             0.000000             0.045271
C            -0.700000            -1.212436             0.057740
C             0.700000            -1.212436             0.093673
C             1.400000            -0.000000             0.069872
H             1.250000             2.165064             0.024468
H            -1.250000             2.165064             0.067858
C             2.800000             0.000000             0.042534
C             1.400000            -2.424871             0.003940
C             2.800000            -2.424871             0.089118
C             3.500000            -1.212436             0.019404
H             3.350000             0.952628             0.065829
C             4.900000            -1.212436             0.074937
C             3.500000            -3.637307             0.082758
C             4.900000            -3.637307             0.083433
C             5.600000            -2.424871             0.015932
H             5.450000            -0.259808             0.004198
C             7.000000            -2.424871             0.079206
C             5.600000            -4.849742             0.030902
N             7.000000            -4.849742             0.007298
B             7.700000            -3.637307             0.023918
H             7.550000            -1.472243             0.032221
C             9.100000            -3.637307             0.010468
C             7.700000            -6.062178             0.078126
C             9.100000            -6.062178             0.007587
C             9.800000            -4.849742             0.012572
H             9.650000            -2.684679             0.029742
C            11.200000            -4.849742             0.083291
C             9.800000            -7.274613             0.041503
C            11.200000            -7.274613             0.087477
C            11.900000            -6.062178             0.040113
H            11.750000            -3.897114             0.086183
C            13.300000            -6.062178             0.086919
C            11.900000            -8.487049             0.063105
C            13.300000            -8.487049             0.013900
C            14.000000            -7.274613             0.050640
H            13.850000            -5.109550             0.028602
H            13.850000            -9.439677             0.068602
H            15.100000            -7.274613             0.091222
C            -2.800000             0.000000             0.011373
C            -3.500000            -1.212436             0.086360
C            -2.800000            -2.424871             0.036037
C            -1.400000            -2.424871             0.053827
H            -3.350000             0.952628             0.082364
C            -0.700000            -3.637307             0.017259
C             0.700000            -3.637307             0.013840
C             1.400000            -4.849742             0.066286
C             2.800000            -4.849742             0.026199
C             3.500000            -6.062178             0.089901
C             4.900000            -6.062178             0.039137
C             5.600000            -7.274613             0.086530
C             7.000000            -7.274613             0.062788
C             7.700000            -8.487049             0.051126
C             9.100000            -8.487049             0.022594
C             9.800000            -9.699485             0.000276
C            11.200000            -9.699485             0.079843
H            11.750000           -10.652112             0.052477
C            -4.900000            -1.212436             0.084255
C            -5.600000            -2.424871             0.033630
C            -4.900000            -3.637307             0.063863
C            -3.500000            -3.637307             0.097340
H            -5.450000            -0.259808             0.098338
C            -2.800000            -4.849742             0.020567
C            -1.400000            -4.849742             0.093716
C            -0.700000            -6.062178             0.087543
C             0.700000            -6.062178             0.081093
C             1.400000            -7.274613             0.021695
C             2.800000            -7.274613             0.085151
C             3.500000            -8.487049             0.052489
C             4.900000            -8.487049             0.043239
C             5.600000            -9.699485             0.058662
C             7.000000            -9.699485             0.010774
C             7.700000           -10.911920             0.044151
C             9.100000           -10.911920             0.060452
H             9.650000           -11.864548             0.070618
C            -7.000000            -2.424871             0.028918
C            -7.700000            -3.637307             0.007843
C            -7.000000            -4.849742             0.078705
C            -5.600000            -4.849742             0.017306
H            -7.550000            -1.472243             0.032897
C            -4.900000            -6.062178             0.058745
C            -3.500000            -6.062178             0.012898
C            -2.800000            -7.274613             0.079245
C            -1.400000            -7.274613             0.024135
C            -0.700000            -8.487049             0.086170
C             0.700000            -8.487049             0.000203
C             1.400000            -9.699485             0.040439
C             2.800000            -9.699485             0.094211
C             3.500000           -10.911920             0.035945
C             4.900000           -10.911920             0.086434
C             5.600000           -12.124356             0.037311
C             7.000000           -12.124356             0.032351
H             7.550000           -13.076984             0.022325
C            -9.100000            -3.637307             0.071213
C            -9.800000            -4.849742             0.076302
C            -9.100000            -6.062178             0.059713
C            -7.700000            -6.062178             0.035508
H            -9.650000            -2.684679             0.065023
H           -10.900000            -4.849742             0.067044
H            -9.650000            -7.014806             0.010504
C            -7.000000            -7.274613             0.000508
C            -5.600000            -7.274613             0.024875
H            -7.550000            -8.227241             0.073630
C            -4.900000            -8.487049             0.066141
C            -3.500000            -8.487049             0.051172
H            -5.450000            -9.439677             0.082134
C            -2.800000            -9.699485             0.005848
C            -1.400000            -9.699485             0.015085
H            -3.350000           -10.652112             0.011104
C            -0.700000           -10.911920             0.077274
C             0.700000           -10.911920             0.074432
H            -1.250000           -11.864548             0.017737
C             1.400000           -12.124356             0.078223
C             2.800000           -12.124356             0.049755
H             0.850000           -13.076984             0.051915
C             3.500000           -13.336791             0.050373
C             4.900000           -13.336791             0.014443
H             2.950000           -14.289419             0.034193
H             5.450000           -14.289419             0.025434
