120
isomero_27_38
C             0.700000             1.212436             0.017790
C            -0.700000             1.212436             0.004385
C            -1.400000             0.000000             0.006808
C            -0.700000            -1.212436             0.028559
C             0.700000            -1.212436             0.097836
C             1.400000            -0.000000             0.046295
H             1.250000             2.165064             0.089106
H            -1.250000             2.165064             0.033633
C             2.800000             0.000000             0.021128
C             1.400000            -2.424871             0.045199
C             2.800000            -2.424871             0.094708
C             3.500000            -1.212436             0.085193
H             3.350000             0.952628             0.039907
C             4.900000            -1.212436             0.045644
C             3.500000            -3.637307             0.059447
C             4.900000            -3.637307             0.099450
C             5.600000            -2.424871             0.083780
H             5.450000            -0.259808             0.041501
C             7.000000            -2.424871             0.069510
C             5.600000            -4.849742             0.022864
C             7.000000            -4.849742             0.012091
C             7.700000            -3.637307             0.097344
H             7.550000            -1.472243             0.035560
C             9.100000            -3.637307             0.036290
C             7.700000            -6.062178             0.050697
C             9.100000            -6.062178             0.083338
C             9.800000            -4.849742             0.057285
H             9.650000            -2.684679             0.051781
C            11.200000            -4.849742             0.081288
C             9.800000            -7.274613             0.021868
C            11.200000            -7.274613             0.005283
C            11.900000            -6.062178             0.076340
H            11.750000            -3.897114             0.040725
C            13.300000            -6.062178             0.057729
C            11.900000            -8.487049             0.011821
C            13.300000            -8.487049             0.074209
C            14.000000            -7.274613             0.069533
H            13.850000            -5.109550             0.056999
H            13.850000            -9.439677             0.024448
H            15.100000            -7.274613             0.088420
C            -2.800000             0.000000             0.005968
C            -3.500000            -1.212436             0.031736
C            -2.800000            -2.424871             0.098748
C            -1.400000            -2.424871             0.045935
H            -3.350000             0.952628             0.030642
C            -0.700000            -3.637307             0.049383
C             0.700000            -3.637307             0.044615
C             1.400000            -4.849742             0.061855
C             2.800000            -4.849742             0.082464
C             3.500000            -6.062178             0.025566
C             4.900000            -6.062178             0.073282
C             5.600000            -7.274613             0.008129
C             7.000000            -7.274613             0.061206
C             7.700000            -8.487049             0.031611
C             9.100000            -8.487049             0.047750
C             9.800000            -9.699485             0.044365
C            11.200000            -9.699485             0.056226
H            11.750000           -10.652112             0.016731
C            -4.900000            -1.212436             0.061624
C            -5.600000            -2.424871             0.096019
C            -4.900000            -3.637307             0.022229
B            -3.500000            -3.637307             0.041482
H            -5.450000            -0.259808             0.071185
N            -2.800000            -4.849742             0.094082
C            -1.400000            -4.849742             0.029526
C            -0.700000            -6.062178             0.061241
C             0.700000            -6.062178             0.068906
C             1.400000            -7.274613             0.055988
C             2.800000            -7.274613             0.029405
C             3.500000            -8.487049             0.055179
C             4.900000            -8.487049             0.028356
C             5.600000            -9.699485             0.081682
C             7.000000            -9.699485             0.091558
C             7.700000           -10.911920             0.005143
C             9.100000           -10.911920             0.085071
H             9.650000           -11.864548             0.007558
C            -7.000000            -2.424871             0.072129
C            -7.700000            -3.637307             0.083264
C            -7.000000            -4.849742             0.069306
C            -5.600000            -4.849742             0.041052
H            -7.550000            -1.472243             0.002788
C            -4.900000            -6.062178             0.073590
C            -3.500000            -6.062178             0.008695
C            -2.800000            -7.274613             0.001608
C            -1.400000            -7.274613             0.030074
C            -0.700000            -8.487049             0.015390
C             0.700000            -8.487049             0.034296
C             1.400000            -9.699485             0.081538
C             2.800000            -9.699485             0.087545
C             3.500000           -10.911920             0.079528
C             4.900000           -10.911920             0.025544
C             5.600000           -12.124356             0.099277
C             7.000000           -12.124356             0.012859
H             7.550000           -13.076984             0.036492
C            -9.100000            -3.637307             0.014870
C            -9.800000            -4.849742             0.028403
C            -9.100000            -6.062178             0.034623
C            -7.700000            -6.062178             0.042602
H            -9.650000            -2.684679             0.085145
H           -10.900000            -4.849742             0.073733
H            -9.650000            -7.014806             0.007615
C            -7.000000            -7.274613             0.028269
C            -5.600000            -7.274613             0.070877
H            -7.550000            -8.227241             0.026268
C            -4.900000            -8.487049             0.082176
C            -3.500000            -8.487049             0.064279
H            -5.450000            -9.439677             0.048150
C            -2.800000            -9.699485             0.047317
C            -1.400000            -9.699485             0.086787
H            -3.350000           -10.652112             0.051456
C            -0.700000           -10.911920             0.013762
C             0.700000           -10.911920             0.006359
H            -1.250000           -11.864548             0.030320
C             1.400000           -12.124356             0.060672
C             2.800000           -12.124356             0.024570
H             0.850000           -13.076984             0.082009
C             3.500000           -13.336791             0.009112
C             4.900000           -13.336791             0.010075
H             2.950000           -14.289419             0.021851
H             5.450000           -14.289419             0.099897
