120
isomero_19_20
C             0.700000             1.212436             0.042718
C            -0.700000             1.212436             0.025831
C            -1.400000             0.000000             0.051970
C            -0.700000            -1.212436             0.012909
C             0.700000            -1.212436             0.038591
C             1.400000            -0.000000             0.038533
H             1.250000             2.165064             0.050246
H            -1.250000             2.165064             0.040717
C             2.800000             0.000000             0.037573
C             1.400000            -2.424871             0.061063
C             2.800000            -2.424871             0.025368
C             3.500000            -1.212436             0.088674
H             3.350000             0.952628             0.084470
C             4.900000            -1.212436             0.027809
C             3.500000            -3.637307             0.008655
C             4.900000            -3.637307             0.082084
C             5.600000            -2.424871             0.095724
H             5.450000            -0.259808             0.052771
C             7.000000            -2.424871             0.003666
C             5.600000            -4.849742             0.006417
C             7.000000            -4.849742             0.028699
C             7.700000            -3.637307             0.051568
H             7.550000            -1.472243             0.008455
C             9.100000            -3.637307             0.014977
C             7.700000            -6.062178             0.090403
C             9.100000            -6.062178             0.090979
C             9.800000            -4.849742             0.073923
H             9.650000            -2.684679             0.039433
C            11.200000            -4.849742             0.042949
C             9.800000            -7.274613             0.029079
C            11.200000            -7.274613             0.064324
C            11.900000            -6.062178             0.001492
H            11.750000            -3.897114             0.054933
C            13.300000            -6.062178             0.090197
C            11.900000            -8.487049             0.053028
C            13.300000            -8.487049             0.065092
C            14.000000            -7.274613             0.014873
H            13.850000            -5.109550             0.083212
H            13.850000            -9.439677             0.084872
H            15.100000            -7.274613             0.091316
C            -2.800000             0.000000             0.075480
C            -3.500000            -1.212436             0.090272
C            -2.800000            -2.424871             0.099812
C            -1.400000            -2.424871             0.048548
H            -3.350000             0.952628             0.013575
C            -0.700000            -3.637307             0.077393
C             0.700000            -3.637307             0.017656
C             1.400000            -4.849742             0.008666
C             2.800000            -4.849742             0.037213
C             3.500000            -6.062178             0.050614
C             4.900000            -6.062178             0.020309
C             5.600000            -7.274613             0.028226
C             7.000000            -7.274613             0.020015
C             7.700000            -8.487049             0.080976
C             9.100000            -8.487049             0.004715
C             9.800000            -9.699485             0.021551
C            11.200000            -9.699485             0.062557
H            11.750000           -10.652112             0.003105
C            -4.900000            -1.212436             0.066526
B            -5.600000            -2.424871             0.045014
C            -4.900000            -3.637307             0.003519
C            -3.500000            -3.637307             0.038899
H            -5.450000            -0.259808             0.094447
C            -2.800000            -4.849742             0.071171
C            -1.400000            -4.849742             0.018074
C            -0.700000            -6.062178             0.071917
C             0.700000            -6.062178             0.072076
C             1.400000            -7.274613             0.090592
C             2.800000            -7.274613             0.080679
C             3.500000            -8.487049             0.057935
C             4.900000            -8.487049             0.061299
C             5.600000            -9.699485             0.043825
C             7.000000            -9.699485             0.062974
C             7.700000           -10.911920             0.004172
C             9.100000           -10.911920             0.051415
H             9.650000           -11.864548             0.065964
N            -7.000000            -2.424871             0.023719
C            -7.700000            -3.637307             0.034527
C            -7.000000            -4.849742             0.078818
C            -5.600000            -4.849742             0.096918
H            -7.550000            -1.472243             0.087439
C            -4.900000            -6.062178             0.030924
C            -3.500000            -6.062178             0.094097
C            -2.800000            -7.274613             0.039043
C            -1.400000            -7.274613             0.034463
C            -0.700000            -8.487049             0.050615
C             0.700000            -8.487049             0.083263
C             1.400000            -9.699485             0.055200
C             2.800000            -9.699485             0.099458
C             3.500000           -10.911920             0.036643
C             4.900000           -10.911920             0.056772
C             5.600000           -12.124356             0.019450
C             7.000000           -12.124356             0.008386
H             7.550000           -13.076984             0.053884
C            -9.100000            -3.637307             0.069228
C            -9.800000            -4.849742             0.006700
C            -9.100000            -6.062178             0.004392
C            -7.700000            -6.062178             0.014679
H            -9.650000            -2.684679             0.083110
H           -10.900000            -4.849742             0.036628
H            -9.650000            -7.014806             0.035331
C            -7.000000            -7.274613             0.048481
C            -5.600000            -7.274613             0.014514
H            -7.550000            -8.227241             0.056491
C            -4.900000            -8.487049             0.084853
C            -3.500000            -8.487049             0.024551
H            -5.450000            -9.439677             0.001361
C            -2.800000            -9.699485             0.025630
C            -1.400000            -9.699485             0.065433
H            -3.350000           -10.652112             0.005364
C            -0.700000           -10.911920             0.023743
C             0.700000           -10.911920             0.080139
H            -1.250000           -11.864548             0.047970
C             1.400000           -12.124356             0.075228
C             2.800000           -12.124356             0.022210
H             0.850000           -13.076984             0.042901
C             3.500000           -13.336791             0.058494
C             4.900000           -13.336791             0.004079
H             2.950000           -14.289419             0.083395
H             5.450000           -14.289419             0.057339
