120
isomero_30_41
C             0.700000             1.212436             0.070632
C            -0.700000             1.212436             0.008070
C            -1.400000             0.000000             0.083466
C            -0.700000            -1.212436             0.065627
C             0.700000            -1.212436             0.024336
C             1.400000            -0.000000             0.077661
H             1.250000             2.165064             0.068036
H            -1.250000             2.165064             0.042581
C             2.800000             0.000000             0.021334
C             1.400000            -2.424871             0.084926
C             2.800000            -2.424871             0.034727
C             3.500000            -1.212436             0.050098
H             3.350000             0.952628             0.081147
C             4.900000            -1.212436             0.090796
C             3.500000            -3.637307             0.033995
C             4.900000            -3.637307             0.019831
C             5.600000            -2.424871             0.003929
H             5.450000            -0.259808             0.017234
C             7.000000            -2.424871             0.097916
C             5.600000            -4.849742             0.099411
C             7.000000            -4.849742             0.035443
C             7.700000            -3.637307             0.072487
H             7.550000            -1.472243             0.009142
C             9.100000            -3.637307             0.064203
C             7.700000            -6.062178             0.080296
C             9.100000            -6.062178             0.036224
C             9.800000            -4.849742             0.081301
H             9.650000            -2.684679             0.075886
C            11.200000            -4.849742             0.030290
C             9.800000            -7.274613             0.097446
C            11.200000            -7.274613             0.050660
C            11.900000            -6.062178             0.055331
H            11.750000            -3.897114             0.009118
C            13.300000            -6.062178             0.035138
C            11.900000            -8.487049             0.093621
C            13.300000            -8.487049             0.034285
C            14.000000            -7.274613             0.052428
H            13.850000            -5.109550             0.098160
H            13.850000            -9.439677             0.035952
H            15.100000            -7.274613             0.088001
C            -2.800000             0.000000             0.062457
C            -3.500000            -1.212436             0.094407
C            -2.800000            -2.424871             0.024524
C            -1.400000            -2.424871             0.055298
H            -3.350000             0.952628             0.032201
C            -0.700000            -3.637307             0.038960
C             0.700000            -3.637307             0.069919
C             1.400000            -4.849742             0.014838
C             2.800000            -4.849742             0.087861
C             3.500000            -6.062178             0.020201
C             4.900000            -6.062178             0.012253
C             5.600000            -7.274613             0.010493
C             7.000000            -7.274613             0.053961
C             7.700000            -8.487049             0.082115
C             9.100000            -8.487049             0.046864
C             9.800000            -9.699485             0.087449
C            11.200000            -9.699485             0.049714
H            11.750000           -10.652112             0.031487
C            -4.900000            -1.212436             0.054663
C            -5.600000            -2.424871             0.037451
C            -4.900000            -3.637307             0.057135
C            -3.500000            -3.637307             0.053712
H            -5.450000            -0.259808             0.099786
C            -2.800000            -4.849742             0.079862
C            -1.400000            -4.849742             0.015524
C            -0.700000            -6.062178             0.009418
C             0.700000            -6.062178             0.059018
C             1.400000            -7.274613             0.055423
C             2.800000            -7.274613             0.074824
C             3.500000            -8.487049             0.064484
C             4.900000            -8.487049             0.017229
C             5.600000            -9.699485             0.004769
C             7.000000            -9.699485             0.050289
C             7.700000           -10.911920             0.052252
C             9.100000           -10.911920             0.049624
H             9.650000           -11.864548             0.028740
C            -7.000000            -2.424871             0.001846
C            -7.700000            -3.637307             0.059514
C            -7.000000            -4.849742             0.023040
C            -5.600000            -4.849742             0.035300
H            -7.550000            -1.472243             0.036071
C            -4.900000            -6.062178             0.023686
C            -3.500000            -6.062178             0.035301
C            -2.800000            -7.274613             0.046146
C            -1.400000            -7.274613             0.021342
C            -0.700000            -8.487049             0.057901
C             0.700000            -8.487049             0.073173
C             1.400000            -9.699485             0.049131
C             2.800000            -9.699485             0.046187
C             3.500000           -10.911920             0.045744
C             4.900000           -10.911920             0.095524
C             5.600000           -12.124356             0.054389
C             7.000000           -12.124356             0.032043
H             7.550000           -13.076984             0.000111
B            -9.100000            -3.637307             0.067975
N            -9.800000            -4.849742             0.088009
C            -9.100000            -6.062178             0.067022
C            -7.700000            -6.062178             0.028098
H            -9.650000            -2.684679             0.018722
H           -10.900000            -4.849742             0.015515
H            -9.650000            -7.014806             0.080276
C            -7.000000            -7.274613             0.023711
C            -5.600000            -7.274613             0.013746
H            -7.550000            -8.227241             0.068455
C            -4.900000            -8.487049             0.018277
C            -3.500000            -8.487049             0.003400
H            -5.450000            -9.439677             0.006092
C            -2.800000            -9.699485             0.091967
C            -1.400000            -9.699485             0.011480
H            -3.350000           -10.652112             0.072935
C            -0.700000           -10.911920             0.023948
C             0.700000           -10.911920             0.048041
H            -1.250000           -11.864548             0.089315
C             1.400000           -12.124356             0.002483
C             2.800000           -12.124356             0.073635
H             0.850000           -13.076984             0.020635
C             3.500000           -13.336791             0.017144
C             4.900000           -13.336791             0.090468
H             2.950000           -14.289419             0.088687
H             5.450000           -14.289419             0.090280
