120
isomero_10_5
C             0.700000             1.212436             0.021071
C            -0.700000             1.212436             0.026377
N            -1.400000             0.000000             0.083567
B            -0.700000            -1.212436             0.004218
C             0.700000            -1.212436             0.016634
C             1.400000            -0.000000             0.065206
H             1.250000             2.165064             0.015390
H            -1.250000             2.165064             0.099118
C             2.800000             0.000000             0.071946
C             1.400000            -2.424871             0.007451
C             2.800000            -2.424871             0.056023
C             3.500000            -1.212436             0.037256
H             3.350000             0.952628             0.081129
C             4.900000            -1.212436             0.030522
C             3.500000            -3.637307             0.097939
C             4.900000            -3.637307             0.067172
C             5.600000            -2.424871             0.089887
H             5.450000            -0.259808             0.036677
C             7.000000            -2.424871             0.008053
C             5.600000            -4.849742             0.069931
C             7.000000            -4.849742             0.025705
C             7.700000            -3.637307             0.076469
H             7.550000            -1.472243             0.076866
C             9.100000            -3.637307             0.008642
C             7.700000            -6.062178             0.091271
C             9.100000            -6.062178             0.008627
C             9.800000            -4.849742             0.025022
H             9.650000            -2.684679             0.022776
C            11.200000            -4.849742             0.034385
C             9.800000            -7.274613             0.006301
C            11.200000            -7.274613             0.058493
C            11.900000            -6.062178             0.039846
H            11.750000            -3.897114             0.012007
C            13.300000            -6.062178             0.065984
C            11.900000            -8.487049             0.067101
C            13.300000            -8.487049             0.042674
C            14.000000            -7.274613             0.027712
H            13.850000            -5.109550             0.068272
H            13.850000            -9.439677             0.005592
H            15.100000            -7.274613             0.028844
C            -2.800000             0.000000             0.084746
C            -3.500000            -1.212436             0.052907
C            -2.800000            -2.424871             0.088599
C            -1.400000            -2.424871             0.066238
H            -3.350000             0.952628             0.035483
C            -0.700000            -3.637307             0.091529
C             0.700000            -3.637307             0.065138
C             1.400000            -4.849742             0.082252
C             2.800000            -4.849742             0.036451
C             3.500000            -6.062178             0.046266
C             4.900000            -6.062178             0.067153
C             5.600000            -7.274613             0.044207
C             7.000000            -7.274613             0.012803
C             7.700000            -8.487049             0.024259
C             9.100000            -8.487049             0.027749
C             9.800000            -9.699485             0.026634
C            11.200000            -9.699485             0.066822
H            11.750000           -10.652112             0.007968
C            -4.900000            -1.212436             0.031263
C            -5.600000            -2.424871             0.038629
C            -4.900000            -3.637307             0.068174
C            -3.500000            -3.637307             0.025832
H            -5.450000            -0.259808             0.031444
C            -2.800000            -4.849742             0.088455
C            -1.400000            -4.849742             0.070155
C            -0.700000            -6.062178             0.072785
C             0.700000            -6.062178             0.087514
C             1.400000            -7.274613             0.078867
C             2.800000            -7.274613             0.088277
C             3.500000            -8.487049             0.018474
C             4.900000            -8.487049             0.030737
C             5.600000            -9.699485             0.088761
C             7.000000            -9.699485             0.001390
C             7.700000           -10.911920             0.042495
C             9.100000           -10.911920             0.025955
H             9.650000           -11.864548             0.048874
C            -7.000000            -2.424871             0.016343
C            -7.700000            -3.637307             0.048464
C            -7.000000            -4.849742             0.040398
C            -5.600000            -4.849742             0.048441
H            -7.550000            -1.472243             0.072355
C            -4.900000            -6.062178             0.051084
C            -3.500000            -6.062178             0.003427
C            -2.800000            -7.274613             0.064176
C            -1.400000            -7.274613             0.048918
C            -0.700000            -8.487049             0.081021
C             0.700000            -8.487049             0.013843
C             1.400000            -9.699485             0.019804
C             2.800000            -9.699485             0.089108
C             3.500000           -10.911920             0.025987
C             4.900000           -10.911920             0.070414
C             5.600000           -12.124356             0.083443
C             7.000000           -12.124356             0.076713
H             7.550000           -13.076984             0.076930
C            -9.100000            -3.637307             0.035921
C            -9.800000            -4.849742             0.042358
C            -9.100000            -6.062178             0.080315
C            -7.700000            -6.062178             0.025143
H            -9.650000            -2.684679             0.077506
H           -10.900000            -4.849742             0.047171
H            -9.650000            -7.014806             0.005212
C            -7.000000            -7.274613             0.073749
C            -5.600000            -7.274613             0.059418
H            -7.550000            -8.227241             0.073292
C            -4.900000            -8.487049             0.091056
C            -3.500000            -8.487049             0.020373
H            -5.450000            -9.439677             0.067454
C            -2.800000            -9.699485             0.034737
C            -1.400000            -9.699485             0.005509
H            -3.350000           -10.652112             0.084393
C            -0.700000           -10.911920             0.039977
C             0.700000           -10.911920             0.048537
H            -1.250000           -11.864548             0.037220
C             1.400000           -12.124356             0.002244
C             2.800000           -12.124356             0.076900
H             0.850000           -13.076984             0.022258
C             3.500000           -13.336791             0.070489
C             4.900000           -13.336791             0.007094
H             2.950000           -14.289419             0.074919
H             5.450000           -14.289419             0.052532
