120
isomero_13_14
C             0.700000             1.212436             0.034718
C            -0.700000             1.212436             0.098894
C            -1.400000             0.000000             0.001511
C            -0.700000            -1.212436             0.026542
C             0.700000            -1.212436             0.068673
C             1.400000            -0.000000             0.083440
H             1.250000             2.165064             0.039756
H            -1.250000             2.165064             0.071716
C             2.800000             0.000000             0.070150
C             1.400000            -2.424871             0.021091
C             2.800000            -2.424871             0.010560
C             3.500000            -1.212436             0.032589
H             3.350000             0.952628             0.021840
C             4.900000            -1.212436             0.086503
C             3.500000            -3.637307             0.037002
C             4.900000            -3.637307             0.080694
N             5.600000            -2.424871             0.012558
H             5.450000            -0.259808             0.030588
B             7.000000            -2.424871             0.074158
C             5.600000            -4.849742             0.017110
C             7.000000            -4.849742             0.084825
C             7.700000            -3.637307             0.019494
H             7.550000            -1.472243             0.072256
C             9.100000            -3.637307             0.023217
C             7.700000            -6.062178             0.033961
C             9.100000            -6.062178             0.016685
C             9.800000            -4.849742             0.082967
H             9.650000            -2.684679             0.035030
C            11.200000            -4.849742             0.097209
C             9.800000            -7.274613             0.081670
C            11.200000            -7.274613             0.047357
C            11.900000            -6.062178             0.049654
H            11.750000            -3.897114             0.016542
C            13.300000            -6.062178             0.011800
C            11.900000            -8.487049             0.032437
C            13.300000            -8.487049             0.020798
C            14.000000            -7.274613             0.051251
H            13.850000            -5.109550             0.072208
H            13.850000            -9.439677             0.056541
H            15.100000            -7.274613             0.005495
C            -2.800000             0.000000             0.003387
C            -3.500000            -1.212436             0.007575
C            -2.800000            -2.424871             0.091046
C            -1.400000            -2.424871             0.080222
H            -3.350000             0.952628             0.024383
C            -0.700000            -3.637307             0.087712
C             0.700000            -3.637307             0.085783
C             1.400000            -4.849742             0.006548
C             2.800000            -4.849742             0.043796
C             3.500000            -6.062178             0.062376
C             4.900000            -6.062178             0.005046
C             5.600000            -7.274613             0.017379
C             7.000000            -7.274613             0.077503
C             7.700000            -8.487049             0.050371
C             9.100000            -8.487049             0.045748
C             9.800000            -9.699485             0.042132
C            11.200000            -9.699485             0.032090
H            11.750000           -10.652112             0.066291
C            -4.900000            -1.212436             0.071533
C            -5.600000            -2.424871             0.020920
C            -4.900000            -3.637307             0.033299
C            -3.500000            -3.637307             0.070252
H            -5.450000            -0.259808             0.079382
C            -2.800000            -4.849742             0.049008
C            -1.400000            -4.849742             0.079739
C            -0.700000            -6.062178             0.092333
C             0.700000            -6.062178             0.034404
C             1.400000            -7.274613             0.089740
C             2.800000            -7.274613             0.076941
C             3.500000            -8.487049             0.048332
C             4.900000            -8.487049             0.009728
C             5.600000            -9.699485             0.084129
C             7.000000            -9.699485             0.047274
C             7.700000           -10.911920             0.049109
C             9.100000           -10.911920             0.010795
H             9.650000           -11.864548             0.033292
C            -7.000000            -2.424871             0.000118
C            -7.700000            -3.637307             0.031623
C            -7.000000            -4.849742             0.054332
C            -5.600000            -4.849742             0.091203
H            -7.550000            -1.472243             0.077415
C            -4.900000            -6.062178             0.046123
C            -3.500000            -6.062178             0.004562
C            -2.800000            -7.274613             0.040718
C            -1.400000            -7.274613             0.090721
C            -0.700000            -8.487049             0.025395
C             0.700000            -8.487049             0.032516
C             1.400000            -9.699485             0.081052
C             2.800000            -9.699485             0.084756
C             3.500000           -10.911920             0.040503
C             4.900000           -10.911920             0.076678
C             5.600000           -12.124356             0.073346
C             7.000000           -12.124356             0.073562
H             7.550000           -13.076984             0.017657
C            -9.100000            -3.637307             0.093609
C            -9.800000            -4.849742             0.005085
C            -9.100000            -6.062178             0.082613
C            -7.700000            -6.062178             0.070708
H            -9.650000            -2.684679             0.024861
H           -10.900000            -4.849742             0.075996
H            -9.650000            -7.014806             0.093555
C            -7.000000            -7.274613             0.042621
C            -5.600000            -7.274613             0.071185
H            -7.550000            -8.227241             0.028200
C            -4.900000            -8.487049             0.011481
C            -3.500000            -8.487049             0.014384
H            -5.450000            -9.439677             0.031104
C            -2.800000            -9.699485             0.043111
C            -1.400000            -9.699485             0.003313
H            -3.350000           -10.652112             0.080386
C            -0.700000           -10.911920             0.030102
C             0.700000           -10.911920             0.033883
H            -1.250000           -11.864548             0.003031
C             1.400000           -12.124356             0.093778
C             2.800000           -12.124356             0.027482
H             0.850000           -13.076984             0.020385
C             3.500000           -13.336791             0.070794
C             4.900000           -13.336791             0.026292
H             2.950000           -14.289419             0.087176
H             5.450000           -14.289419             0.015265
