120
isomero_15_16
C             0.700000             1.212436             0.067717
C            -0.700000             1.212436             0.093632
C            -1.400000             0.000000             0.082878
C            -0.700000            -1.212436             0.084837
C             0.700000            -1.212436             0.061546
C             1.400000            -0.000000             0.044482
H             1.250000             2.165064             0.078630
H            -1.250000             2.165064             0.045147
C             2.800000             0.000000             0.039908
N             1.400000            -2.424871             0.097748
B             2.800000            -2.424871             0.085859
C             3.500000            -1.212436             0.051015
H             3.350000             0.952628             0.024057
C             4.900000            -1.212436             0.015146
C             3.500000            -3.637307             0.023209
C             4.900000            -3.637307             0.032493
C             5.600000            -2.424871             0.080422
H             5.450000            -0.259808             0.034368
C             7.000000            -2.424871             0.007831
C             5.600000            -4.849742             0.015806
C             7.000000            -4.849742             0.005039
C             7.700000            -3.637307             0.063196
H             7.550000            -1.472243             0.031808
C             9.100000            -3.637307             0.090281
C             7.700000            -6.062178             0.022305
C             9.100000            -6.062178             0.095706
C             9.800000            -4.849742             0.023967
H             9.650000            -2.684679             0.017702
C            11.200000            -4.849742             0.051078
C             9.800000            -7.274613             0.083772
C            11.200000            -7.274613             0.088505
C            11.900000            -6.062178             0.098735
H            11.750000            -3.897114             0.034626
C            13.300000            -6.062178             0.092905
C            11.900000            -8.487049             0.050833
C            13.300000            -8.487049             0.020827
C            14.000000            -7.274613             0.054755
H            13.850000            -5.109550             0.079602
H            13.850000            -9.439677             0.036665
H            15.100000            -7.274613             0.081269
C            -2.800000             0.000000             0.010775
C            -3.500000            -1.212436             0.086741
C            -2.800000            -2.424871             0.071275
C            -1.400000            -2.424871             0.017284
H            -3.350000             0.952628             0.037696
C            -0.700000            -3.637307             0.072238
C             0.700000            -3.637307             0.009883
C             1.400000            -4.849742             0.070459
C             2.800000            -4.849742             0.009230
C             3.500000            -6.062178             0.041674
C             4.900000            -6.062178             0.092758
C             5.600000            -7.274613             0.033526
C             7.000000            -7.274613             0.059362
C             7.700000            -8.487049             0.017330
C             9.100000            -8.487049             0.033414
C             9.800000            -9.699485             0.023583
C            11.200000            -9.699485             0.075456
H            11.750000           -10.652112             0.082272
C            -4.900000            -1.212436             0.025962
C            -5.600000            -2.424871             0.008240
C            -4.900000            -3.637307             0.098450
C            -3.500000            -3.637307             0.095842
H            -5.450000            -0.259808             0.035428
C            -2.800000            -4.849742             0.049375
C            -1.400000            -4.849742             0.075448
C            -0.700000            -6.062178             0.075408
C             0.700000            -6.062178             0.001814
C             1.400000            -7.274613             0.096508
C             2.800000            -7.274613             0.055960
C             3.500000            -8.487049             0.001042
C             4.900000            -8.487049             0.066765
C             5.600000            -9.699485             0.002234
C             7.000000            -9.699485             0.011003
C             7.700000           -10.911920             0.070385
C             9.100000           -10.911920             0.095512
H             9.650000           -11.864548             0.094424
C            -7.000000            -2.424871             0.024043
C            -7.700000            -3.637307             0.043504
C            -7.000000            -4.849742             0.036194
C            -5.600000            -4.849742             0.063406
H            -7.550000            -1.472243             0.071871
C            -4.900000            -6.062178             0.085362
C            -3.500000            -6.062178             0.071017
C            -2.800000            -7.274613             0.005138
C            -1.400000            -7.274613             0.033856
C            -0.700000            -8.487049             0.056807
C             0.700000            -8.487049             0.019845
C             1.400000            -9.699485             0.097833
C             2.800000            -9.699485             0.052662
C             3.500000           -10.911920             0.013863
C             4.900000           -10.911920             0.017925
C             5.600000           -12.124356             0.058070
C             7.000000           -12.124356             0.032495
H             7.550000           -13.076984             0.037316
C            -9.100000            -3.637307             0.028501
C            -9.800000            -4.849742             0.059236
C            -9.100000            -6.062178             0.040979
C            -7.700000            -6.062178             0.095275
H            -9.650000            -2.684679             0.029033
H           -10.900000            -4.849742             0.016191
H            -9.650000            -7.014806             0.015241
C            -7.000000            -7.274613             0.069923
C            -5.600000            -7.274613             0.082438
H            -7.550000            -8.227241             0.018842
C            -4.900000            -8.487049             0.086791
C            -3.500000            -8.487049             0.040338
H            -5.450000            -9.439677             0.071185
C            -2.800000            -9.699485             0.064527
C            -1.400000            -9.699485             0.018692
H            -3.350000           -10.652112             0.046964
C            -0.700000           -10.911920             0.045658
C             0.700000           -10.911920             0.086327
H            -1.250000           -11.864548             0.000742
C             1.400000           -12.124356             0.097379
C             2.800000           -12.124356             0.015753
H             0.850000           -13.076984             0.044095
C             3.500000           -13.336791             0.064377
C             4.900000           -13.336791             0.009202
H             2.950000           -14.289419             0.024384
H             5.450000           -14.289419             0.035401
