120
isomero_18_27
C             0.700000             1.212436             0.087946
C            -0.700000             1.212436             0.070621
C            -1.400000             0.000000             0.012896
C            -0.700000            -1.212436             0.085501
C             0.700000            -1.212436             0.038660
C             1.400000            -0.000000             0.061803
H             1.250000             2.165064             0.015198
H            -1.250000             2.165064             0.021935
C             2.800000             0.000000             0.028766
C             1.400000            -2.424871             0.056934
C             2.800000            -2.424871             0.087157
C             3.500000            -1.212436             0.079802
H             3.350000             0.952628             0.086588
C             4.900000            -1.212436             0.018093
C             3.500000            -3.637307             0.095921
C             4.900000            -3.637307             0.090580
C             5.600000            -2.424871             0.041255
H             5.450000            -0.259808             0.001114
C             7.000000            -2.424871             0.073170
C             5.600000            -4.849742             0.002749
C             7.000000            -4.849742             0.048733
C             7.700000            -3.637307             0.052724
H             7.550000            -1.472243             0.077920
C             9.100000            -3.637307             0.069523
C             7.700000            -6.062178             0.060592
C             9.100000            -6.062178             0.025991
C             9.800000            -4.849742             0.064391
H             9.650000            -2.684679             0.022768
C            11.200000            -4.849742             0.097796
C             9.800000            -7.274613             0.080495
C            11.200000            -7.274613             0.013941
C            11.900000            -6.062178             0.074804
H            11.750000            -3.897114             0.068142
C            13.300000            -6.062178             0.018081
C            11.900000            -8.487049             0.022175
C            13.300000            -8.487049             0.072559
C            14.000000            -7.274613             0.085197
H            13.850000            -5.109550             0.041191
H            13.850000            -9.439677             0.030765
H            15.100000            -7.274613             0.077087
C            -2.800000             0.000000             0.082379
C            -3.500000            -1.212436             0.076281
B            -2.800000            -2.424871             0.071698
C            -1.400000            -2.424871             0.064040
H            -3.350000             0.952628             0.056114
C            -0.700000            -3.637307             0.051289
C             0.700000            -3.637307             0.076472
C             1.400000            -4.849742             0.098189
C             2.800000            -4.849742             0.087434
C             3.500000            -6.062178             0.074036
C             4.900000            -6.062178             0.006342
C             5.600000            -7.274613             0.056006
C             7.000000            -7.274613             0.099552
C             7.700000            -8.487049             0.031008
C             9.100000            -8.487049             0.060592
C             9.800000            -9.699485             0.023691
C            11.200000            -9.699485             0.087110
H            11.750000           -10.652112             0.075955
C            -4.900000            -1.212436             0.032320
C            -5.600000            -2.424871             0.091423
C            -4.900000            -3.637307             0.001704
N            -3.500000            -3.637307             0.099877
H            -5.450000            -0.259808             0.087502
C            -2.800000            -4.849742             0.086652
C            -1.400000            -4.849742             0.015217
C            -0.700000            -6.062178             0.080050
C             0.700000            -6.062178             0.053899
C             1.400000            -7.274613             0.069703
C             2.800000            -7.274613             0.047199
C             3.500000            -8.487049             0.003830
C             4.900000            -8.487049             0.043125
C             5.600000            -9.699485             0.097845
C             7.000000            -9.699485             0.057614
C             7.700000           -10.911920             0.031838
C             9.100000           -10.911920             0.093962
H             9.650000           -11.864548             0.011285
C            -7.000000            -2.424871             0.086996
C            -7.700000            -3.637307             0.034980
C            -7.000000            -4.849742             0.069410
C            -5.600000            -4.849742             0.085223
H            -7.550000            -1.472243             0.019748
C            -4.900000            -6.062178             0.022938
C            -3.500000            -6.062178             0.001341
C            -2.800000            -7.274613             0.070759
C            -1.400000            -7.274613             0.029513
C            -0.700000            -8.487049             0.004426
C             0.700000            -8.487049             0.052182
C             1.400000            -9.699485             0.058768
C             2.800000            -9.699485             0.051331
C             3.500000           -10.911920             0.090940
C             4.900000           -10.911920             0.019692
C             5.600000           -12.124356             0.043419
C             7.000000           -12.124356             0.049796
H             7.550000           -13.076984             0.071932
C            -9.100000            -3.637307             0.073860
C            -9.800000            -4.849742             0.091158
C            -9.100000            -6.062178             0.078412
C            -7.700000            -6.062178             0.040029
H            -9.650000            -2.684679             0.049979
H           -10.900000            -4.849742             0.067758
H            -9.650000            -7.014806             0.089808
C            -7.000000            -7.274613             0.015150
C            -5.600000            -7.274613             0.015795
H            -7.550000            -8.227241             0.019060
C            -4.900000            -8.487049             0.099095
C            -3.500000            -8.487049             0.075398
H            -5.450000            -9.439677             0.012668
C            -2.800000            -9.699485             0.010484
C            -1.400000            -9.699485             0.010358
H            -3.350000           -10.652112             0.031405
C            -0.700000           -10.911920             0.030150
C             0.700000           -10.911920             0.083835
H            -1.250000           -11.864548             0.087093
C             1.400000           -12.124356             0.033131
C             2.800000           -12.124356             0.035408
H             0.850000           -13.076984             0.055138
C             3.500000           -13.336791             0.071561
C             4.900000           -13.336791             0.015385
H             2.950000           -14.289419             0.067606
H             5.450000           -14.289419             0.019556
