120
isomero_42_43
C             0.700000             1.212436             0.050172
C            -0.700000             1.212436             0.009422
C            -1.400000             0.000000             0.030847
C            -0.700000            -1.212436             0.034498
C             0.700000            -1.212436             0.017161
C             1.400000            -0.000000             0.074762
H             1.250000             2.165064             0.043393
H            -1.250000             2.165064             0.020771
C             2.800000             0.000000             0.030125
C             1.400000            -2.424871             0.054638
C             2.800000            -2.424871             0.050887
C             3.500000            -1.212436             0.087355
H             3.350000             0.952628             0.048268
C             4.900000            -1.212436             0.054059
C             3.500000            -3.637307             0.082777
C             4.900000            -3.637307             0.007750
C             5.600000            -2.424871             0.099383
H             5.450000            -0.259808             0.097187
C             7.000000            -2.424871             0.021602
C             5.600000            -4.849742             0.097927
C             7.000000            -4.849742             0.081038
C             7.700000            -3.637307             0.001148
H             7.550000            -1.472243             0.001295
C             9.100000            -3.637307             0.020462
C             7.700000            -6.062178             0.014618
C             9.100000            -6.062178             0.067811
C             9.800000            -4.849742             0.026354
H             9.650000            -2.684679             0.081062
C            11.200000            -4.849742             0.084233
C             9.800000            -7.274613             0.028230
C            11.200000            -7.274613             0.041010
N            11.900000            -6.062178             0.001782
H            11.750000            -3.897114             0.066778
B            13.300000            -6.062178             0.068526
C            11.900000            -8.487049             0.034738
C            13.300000            -8.487049             0.022467
C            14.000000            -7.274613             0.085409
H            13.850000            -5.109550             0.084053
H            13.850000            -9.439677             0.093586
H            15.100000            -7.274613             0.030889
C            -2.800000             0.000000             0.089534
C            -3.500000            -1.212436             0.097508
C            -2.800000            -2.424871             0.029685
C            -1.400000            -2.424871             0.024319
H            -3.350000             0.952628             0.032842
C            -0.700000            -3.637307             0.072490
C             0.700000            -3.637307             0.042368
C             1.400000            -4.849742             0.008676
C             2.800000            -4.849742             0.011785
C             3.500000            -6.062178             0.093513
C             4.900000            -6.062178             0.089521
C             5.600000            -7.274613             0.028953
C             7.000000            -7.274613             0.048534
C             7.700000            -8.487049             0.031190
C             9.100000            -8.487049             0.060310
C             9.800000            -9.699485             0.080042
C            11.200000            -9.699485             0.082388
H            11.750000           -10.652112             0.071418
C            -4.900000            -1.212436             0.007840
C            -5.600000            -2.424871             0.024786
C            -4.900000            -3.637307             0.027557
C            -3.500000            -3.637307             0.004597
H            -5.450000            -0.259808             0.035007
C            -2.800000            -4.849742             0.092589
C            -1.400000            -4.849742             0.005646
C            -0.700000            -6.062178             0.093890
C             0.700000            -6.062178             0.017379
C             1.400000            -7.274613             0.037187
C             2.800000            -7.274613             0.029936
C             3.500000            -8.487049             0.003346
C             4.900000            -8.487049             0.063880
C             5.600000            -9.699485             0.033647
C             7.000000            -9.699485             0.008740
C             7.700000           -10.911920             0.066638
C             9.100000           -10.911920             0.088676
H             9.650000           -11.864548             0.097169
C            -7.000000            -2.424871             0.020881
C            -7.700000            -3.637307             0.021752
C            -7.000000            -4.849742             0.057355
C            -5.600000            -4.849742             0.035947
H            -7.550000            -1.472243             0.055285
C            -4.900000            -6.062178             0.074536
C            -3.500000            -6.062178             0.053877
C            -2.800000            -7.274613             0.092085
C            -1.400000            -7.274613             0.032610
C            -0.700000            -8.487049             0.036268
C             0.700000            -8.487049             0.078896
C             1.400000            -9.699485             0.025928
C             2.800000            -9.699485             0.087747
C             3.500000           -10.911920             0.042123
C             4.900000           -10.911920             0.022693
C             5.600000           -12.124356             0.021012
C             7.000000           -12.124356             0.073193
H             7.550000           -13.076984             0.069079
C            -9.100000            -3.637307             0.040243
C            -9.800000            -4.849742             0.092490
C            -9.100000            -6.062178             0.095364
C            -7.700000            -6.062178             0.095149
H            -9.650000            -2.684679             0.032493
H           -10.900000            -4.849742             0.024351
H            -9.650000            -7.014806             0.033410
C            -7.000000            -7.274613             0.082528
C            -5.600000            -7.274613             0.078868
H            -7.550000            -8.227241             0.089341
C            -4.900000            -8.487049             0.087225
C            -3.500000            -8.487049             0.023101
H            -5.450000            -9.439677             0.049432
C            -2.800000            -9.699485             0.008083
C            -1.400000            -9.699485             0.093575
H            -3.350000           -10.652112             0.032635
C            -0.700000           -10.911920             0.061315
C             0.700000           -10.911920             0.082470
H            -1.250000           -11.864548             0.033696
C             1.400000           -12.124356             0.040123
C             2.800000           -12.124356             0.050573
H             0.850000           -13.076984             0.055957
C             3.500000           -13.336791             0.048198
C             4.900000           -13.336791             0.055294
H             2.950000           -14.289419             0.045132
H             5.450000           -14.289419             0.099696
