120
isomero_40_52
C             0.700000             1.212436             0.043853
C            -0.700000             1.212436             0.082702
C            -1.400000             0.000000             0.017118
C            -0.700000            -1.212436             0.042252
C             0.700000            -1.212436             0.015517
C             1.400000            -0.000000             0.040892
H             1.250000             2.165064             0.064634
H            -1.250000             2.165064             0.038704
C             2.800000             0.000000             0.063408
C             1.400000            -2.424871             0.097090
C             2.800000            -2.424871             0.077366
C             3.500000            -1.212436             0.081852
H             3.350000             0.952628             0.095491
C             4.900000            -1.212436             0.040550
C             3.500000            -3.637307             0.025309
C             4.900000            -3.637307             0.079511
C             5.600000            -2.424871             0.075891
H             5.450000            -0.259808             0.070379
C             7.000000            -2.424871             0.081277
C             5.600000            -4.849742             0.024152
C             7.000000            -4.849742             0.005643
C             7.700000            -3.637307             0.091764
H             7.550000            -1.472243             0.011142
C             9.100000            -3.637307             0.076410
C             7.700000            -6.062178             0.096611
C             9.100000            -6.062178             0.091152
C             9.800000            -4.849742             0.070423
H             9.650000            -2.684679             0.092714
C            11.200000            -4.849742             0.014641
C             9.800000            -7.274613             0.015764
C            11.200000            -7.274613             0.090402
C            11.900000            -6.062178             0.045082
H            11.750000            -3.897114             0.046643
C            13.300000            -6.062178             0.019130
C            11.900000            -8.487049             0.015484
C            13.300000            -8.487049             0.093382
C            14.000000            -7.274613             0.071443
H            13.850000            -5.109550             0.037921
H            13.850000            -9.439677             0.068845
H            15.100000            -7.274613             0.065885
C            -2.800000             0.000000             0.048026
C            -3.500000            -1.212436             0.042914
C            -2.800000            -2.424871             0.001467
C            -1.400000            -2.424871             0.023422
H            -3.350000             0.952628             0.047168
C            -0.700000            -3.637307             0.085250
C             0.700000            -3.637307             0.002251
C             1.400000            -4.849742             0.004595
C             2.800000            -4.849742             0.028480
C             3.500000            -6.062178             0.019512
C             4.900000            -6.062178             0.096977
C             5.600000            -7.274613             0.008662
C             7.000000            -7.274613             0.077658
C             7.700000            -8.487049             0.095060
C             9.100000            -8.487049             0.092363
C             9.800000            -9.699485             0.090576
C            11.200000            -9.699485             0.013829
H            11.750000           -10.652112             0.005116
C            -4.900000            -1.212436             0.004219
C            -5.600000            -2.424871             0.013077
C            -4.900000            -3.637307             0.053495
C            -3.500000            -3.637307             0.045209
H            -5.450000            -0.259808             0.048818
C            -2.800000            -4.849742             0.074760
C            -1.400000            -4.849742             0.012729
C            -0.700000            -6.062178             0.029333
C             0.700000            -6.062178             0.069692
C             1.400000            -7.274613             0.095520
C             2.800000            -7.274613             0.098798
C             3.500000            -8.487049             0.093612
C             4.900000            -8.487049             0.099848
C             5.600000            -9.699485             0.004182
C             7.000000            -9.699485             0.084489
C             7.700000           -10.911920             0.027343
C             9.100000           -10.911920             0.042456
H             9.650000           -11.864548             0.024195
C            -7.000000            -2.424871             0.018114
C            -7.700000            -3.637307             0.027474
B            -7.000000            -4.849742             0.020267
C            -5.600000            -4.849742             0.023521
H            -7.550000            -1.472243             0.078058
C            -4.900000            -6.062178             0.070319
C            -3.500000            -6.062178             0.097604
C            -2.800000            -7.274613             0.092284
C            -1.400000            -7.274613             0.070088
C            -0.700000            -8.487049             0.097558
C             0.700000            -8.487049             0.033107
C             1.400000            -9.699485             0.039332
C             2.800000            -9.699485             0.062175
C             3.500000           -10.911920             0.013876
C             4.900000           -10.911920             0.086834
C             5.600000           -12.124356             0.033251
C             7.000000           -12.124356             0.088430
H             7.550000           -13.076984             0.029528
C            -9.100000            -3.637307             0.095204
C            -9.800000            -4.849742             0.035830
C            -9.100000            -6.062178             0.053904
N            -7.700000            -6.062178             0.061322
H            -9.650000            -2.684679             0.080212
H           -10.900000            -4.849742             0.069536
H            -9.650000            -7.014806             0.019148
C            -7.000000            -7.274613             0.055111
C            -5.600000            -7.274613             0.064909
H            -7.550000            -8.227241             0.062322
C            -4.900000            -8.487049             0.082133
C            -3.500000            -8.487049             0.025276
H            -5.450000            -9.439677             0.012145
C            -2.800000            -9.699485             0.060864
C            -1.400000            -9.699485             0.037140
H            -3.350000           -10.652112             0.083965
C            -0.700000           -10.911920             0.096310
C             0.700000           -10.911920             0.075207
H            -1.250000           -11.864548             0.097772
C             1.400000           -12.124356             0.097136
C             2.800000           -12.124356             0.040796
H             0.850000           -13.076984             0.066570
C             3.500000           -13.336791             0.054098
C             4.900000           -13.336791             0.088592
H             2.950000           -14.289419             0.078905
H             5.450000           -14.289419             0.045613
