120
isomero_18_11
C             0.700000             1.212436             0.085465
C            -0.700000             1.212436             0.066376
C            -1.400000             0.000000             0.090893
C            -0.700000            -1.212436             0.064241
C             0.700000            -1.212436             0.008464
C             1.400000            -0.000000             0.052736
H             1.250000             2.165064             0.085067
H            -1.250000             2.165064             0.073916
C             2.800000             0.000000             0.056333
C             1.400000            -2.424871             0.063917
C             2.800000            -2.424871             0.034586
C             3.500000            -1.212436             0.034116
H             3.350000             0.952628             0.009443
C             4.900000            -1.212436             0.018104
C             3.500000            -3.637307             0.070566
C             4.900000            -3.637307             0.091642
C             5.600000            -2.424871             0.004126
H             5.450000            -0.259808             0.075462
C             7.000000            -2.424871             0.049005
C             5.600000            -4.849742             0.009317
C             7.000000            -4.849742             0.081193
C             7.700000            -3.637307             0.085668
H             7.550000            -1.472243             0.019705
C             9.100000            -3.637307             0.099680
C             7.700000            -6.062178             0.082347
C             9.100000            -6.062178             0.092640
C             9.800000            -4.849742             0.090245
H             9.650000            -2.684679             0.000084
C            11.200000            -4.849742             0.045684
C             9.800000            -7.274613             0.078789
C            11.200000            -7.274613             0.087409
C            11.900000            -6.062178             0.023623
H            11.750000            -3.897114             0.061138
C            13.300000            -6.062178             0.082285
C            11.900000            -8.487049             0.004263
C            13.300000            -8.487049             0.097101
C            14.000000            -7.274613             0.027069
H            13.850000            -5.109550             0.099901
H            13.850000            -9.439677             0.093172
H            15.100000            -7.274613             0.066065
C            -2.800000             0.000000             0.002642
N            -3.500000            -1.212436             0.002345
B            -2.800000            -2.424871             0.081633
C            -1.400000            -2.424871             0.015476
H            -3.350000             0.952628             0.029793
C            -0.700000            -3.637307             0.036969
C             0.700000            -3.637307             0.048380
C             1.400000            -4.849742             0.065351
C             2.800000            -4.849742             0.009407
C             3.500000            -6.062178             0.055352
C             4.900000            -6.062178             0.019386
C             5.600000            -7.274613             0.050666
C             7.000000            -7.274613             0.034605
C             7.700000            -8.487049             0.021250
C             9.100000            -8.487049             0.023077
C             9.800000            -9.699485             0.021189
C            11.200000            -9.699485             0.010976
H            11.750000           -10.652112             0.030179
C            -4.900000            -1.212436             0.003557
C            -5.600000            -2.424871             0.077307
C            -4.900000            -3.637307             0.063876
C            -3.500000            -3.637307             0.062777
H            -5.450000            -0.259808             0.011379
C            -2.800000            -4.849742             0.026515
C            -1.400000            -4.849742             0.012559
C            -0.700000            -6.062178             0.083462
C             0.700000            -6.062178             0.042883
C             1.400000            -7.274613             0.090820
C             2.800000            -7.274613             0.042104
C             3.500000            -8.487049             0.099519
C             4.900000            -8.487049             0.033618
C             5.600000            -9.699485             0.034739
C             7.000000            -9.699485             0.050410
C             7.700000           -10.911920             0.019096
C             9.100000           -10.911920             0.064307
H             9.650000           -11.864548             0.010851
C            -7.000000            -2.424871             0.070544
C            -7.700000            -3.637307             0.048861
C            -7.000000            -4.849742             0.052396
C            -5.600000            -4.849742             0.071672
H            -7.550000            -1.472243             0.052912
C            -4.900000            -6.062178             0.010759
C            -3.500000            -6.062178             0.042917
C            -2.800000            -7.274613             0.068553
C            -1.400000            -7.274613             0.071116
C            -0.700000            -8.487049             0.051774
C             0.700000            -8.487049             0.043240
C             1.400000            -9.699485             0.035183
C             2.800000            -9.699485             0.097176
C             3.500000           -10.911920             0.061939
C             4.900000           -10.911920             0.075949
C             5.600000           -12.124356             0.050227
C             7.000000           -12.124356             0.063908
H             7.550000           -13.076984             0.099666
C            -9.100000            -3.637307             0.055969
C            -9.800000            -4.849742             0.000503
C            -9.100000            -6.062178             0.037257
C            -7.700000            -6.062178             0.022553
H            -9.650000            -2.684679             0.039485
H           -10.900000            -4.849742             0.078600
H            -9.650000            -7.014806             0.097130
C            -7.000000            -7.274613             0.031954
C            -5.600000            -7.274613             0.014421
H            -7.550000            -8.227241             0.090626
C            -4.900000            -8.487049             0.028494
C            -3.500000            -8.487049             0.055221
H            -5.450000            -9.439677             0.088259
C            -2.800000            -9.699485             0.047919
C            -1.400000            -9.699485             0.071810
H            -3.350000           -10.652112             0.097599
C            -0.700000           -10.911920             0.086853
C             0.700000           -10.911920             0.007901
H            -1.250000           -11.864548             0.089601
C             1.400000           -12.124356             0.022991
C             2.800000           -12.124356             0.076760
H             0.850000           -13.076984             0.007645
C             3.500000           -13.336791             0.060335
C             4.900000           -13.336791             0.002973
H             2.950000           -14.289419             0.069920
H             5.450000           -14.289419             0.050874
