120
isomero_43_42
C             0.700000             1.212436             0.065191
C            -0.700000             1.212436             0.073803
C            -1.400000             0.000000             0.017375
C            -0.700000            -1.212436             0.074790
C             0.700000            -1.212436             0.012526
C             1.400000            -0.000000             0.002479
H             1.250000             2.165064             0.074310
H            -1.250000             2.165064             0.082925
C             2.800000             0.000000             0.058942
C             1.400000            -2.424871             0.043901
C             2.800000            -2.424871             0.013578
C             3.500000            -1.212436             0.060217
H             3.350000             0.952628             0.061566
C             4.900000            -1.212436             0.039225
C             3.500000            -3.637307             0.039402
C             4.900000            -3.637307             0.093823
C             5.600000            -2.424871             0.036404
H             5.450000            -0.259808             0.068108
C             7.000000            -2.424871             0.051019
C             5.600000            -4.849742             0.059708
C             7.000000            -4.849742             0.074798
C             7.700000            -3.637307             0.059591
H             7.550000            -1.472243             0.058861
C             9.100000            -3.637307             0.076506
C             7.700000            -6.062178             0.087621
C             9.100000            -6.062178             0.097075
C             9.800000            -4.849742             0.017757
H             9.650000            -2.684679             0.031068
C            11.200000            -4.849742             0.030076
C             9.800000            -7.274613             0.080480
C            11.200000            -7.274613             0.053518
B            11.900000            -6.062178             0.079205
H            11.750000            -3.897114             0.023256
N            13.300000            -6.062178             0.073781
C            11.900000            -8.487049             0.074533
C            13.300000            -8.487049             0.004571
C            14.000000            -7.274613             0.078639
H            13.850000            -5.109550             0.098309
H            13.850000            -9.439677             0.065747
H            15.100000            -7.274613             0.055160
C            -2.800000             0.000000             0.066245
C            -3.500000            -1.212436             0.057029
C            -2.800000            -2.424871             0.017448
C            -1.400000            -2.424871             0.002437
H            -3.350000             0.952628             0.025901
C            -0.700000            -3.637307             0.098162
C             0.700000            -3.637307             0.075735
C             1.400000            -4.849742             0.093526
C             2.800000            -4.849742             0.046847
C             3.500000            -6.062178             0.080054
C             4.900000            -6.062178             0.069705
C             5.600000            -7.274613             0.022967
C             7.000000            -7.274613             0.083448
C             7.700000            -8.487049             0.079469
C             9.100000            -8.487049             0.011387
C             9.800000            -9.699485             0.070992
C            11.200000            -9.699485             0.009510
H            11.750000           -10.652112             0.008346
C            -4.900000            -1.212436             0.032854
C            -5.600000            -2.424871             0.058846
C            -4.900000            -3.637307             0.096397
C            -3.500000            -3.637307             0.096614
H            -5.450000            -0.259808             0.080690
C            -2.800000            -4.849742             0.038424
C            -1.400000            -4.849742             0.028051
C            -0.700000            -6.062178             0.082413
C             0.700000            -6.062178             0.063784
C             1.400000            -7.274613             0.064528
C             2.800000            -7.274613             0.081798
C             3.500000            -8.487049             0.020294
C             4.900000            -8.487049             0.056736
C             5.600000            -9.699485             0.082183
C             7.000000            -9.699485             0.067242
C             7.700000           -10.911920             0.030886
C             9.100000           -10.911920             0.027716
H             9.650000           -11.864548             0.094109
C            -7.000000            -2.424871             0.056768
C            -7.700000            -3.637307             0.039328
C            -7.000000            -4.849742             0.065164
C            -5.600000            -4.849742             0.012522
H            -7.550000            -1.472243             0.046190
C            -4.900000            -6.062178             0.048243
C            -3.500000            -6.062178             0.037808
C            -2.800000            -7.274613             0.042181
C            -1.400000            -7.274613             0.033494
C            -0.700000            -8.487049             0.086763
C             0.700000            -8.487049             0.068643
C             1.400000            -9.699485             0.087576
C             2.800000            -9.699485             0.081947
C             3.500000           -10.911920             0.007977
C             4.900000           -10.911920             0.090842
C             5.600000           -12.124356             0.015627
C             7.000000           -12.124356             0.081170
H             7.550000           -13.076984             0.067528
C            -9.100000            -3.637307             0.032209
C            -9.800000            -4.849742             0.062385
C            -9.100000            -6.062178             0.072503
C            -7.700000            -6.062178             0.027181
H            -9.650000            -2.684679             0.072223
H           -10.900000            -4.849742             0.039599
H            -9.650000            -7.014806             0.031544
C            -7.000000            -7.274613             0.063089
C            -5.600000            -7.274613             0.071842
H            -7.550000            -8.227241             0.053157
C            -4.900000            -8.487049             0.076985
C            -3.500000            -8.487049             0.095036
H            -5.450000            -9.439677             0.047568
C            -2.800000            -9.699485             0.022340
C            -1.400000            -9.699485             0.078180
H            -3.350000           -10.652112             0.027613
C            -0.700000           -10.911920             0.003702
C             0.700000           -10.911920             0.060998
H            -1.250000           -11.864548             0.021568
C             1.400000           -12.124356             0.079318
C             2.800000           -12.124356             0.099116
H             0.850000           -13.076984             0.056003
C             3.500000           -13.336791             0.050602
C             4.900000           -13.336791             0.042436
H             2.950000           -14.289419             0.087431
H             5.450000           -14.289419             0.052898
