66
isomero_12_19
C             0.700000             1.212436             0.014760
C            -0.700000             1.212436             0.089559
C            -1.400000             0.000000             0.026138
C            -0.700000            -1.212436             0.085191
C             0.700000            -1.212436             0.003794
C             1.400000            -0.000000             0.053293
H             1.250000             2.165064             0.072597
H            -1.250000             2.165064             0.000651
C             2.800000             0.000000             0.078243
C             1.400000            -2.424871             0.041417
C             2.800000            -2.424871             0.018979
C             3.500000            -1.212436             0.066888
H             3.350000             0.952628             0.093722
C             4.900000            -1.212436             0.029950
C             3.500000            -3.637307             0.091107
C             4.900000            -3.637307             0.036970
C             5.600000            -2.424871             0.053263
H             5.450000            -0.259808             0.061500
C             7.000000            -2.424871             0.042758
C             5.600000            -4.849742             0.012928
C             7.000000            -4.849742             0.065303
C             7.700000            -3.637307             0.076981
H             7.550000            -1.472243             0.052419
H             7.550000            -5.802370             0.061790
H             8.800000            -3.637307             0.031871
C            -2.800000             0.000000             0.059351
C            -3.500000            -1.212436             0.087281
C            -2.800000            -2.424871             0.091737
C            -1.400000            -2.424871             0.029410
H            -3.350000             0.952628             0.058865
C            -0.700000            -3.637307             0.041396
C             0.700000            -3.637307             0.056842
C             1.400000            -4.849742             0.076243
C             2.800000            -4.849742             0.059641
C             3.500000            -6.062178             0.040980
C             4.900000            -6.062178             0.091257
H             5.450000            -7.014806             0.016318
B            -4.900000            -1.212436             0.014919
N            -5.600000            -2.424871             0.060570
C            -4.900000            -3.637307             0.082067
C            -3.500000            -3.637307             0.038264
H            -5.450000            -0.259808             0.048934
C            -2.800000            -4.849742             0.026069
C            -1.400000            -4.849742             0.021152
C            -0.700000            -6.062178             0.058359
C             0.700000            -6.062178             0.080907
C             1.400000            -7.274613             0.043308
C             2.800000            -7.274613             0.050117
H             3.350000            -8.227241             0.067524
C            -7.000000            -2.424871             0.076014
C            -7.700000            -3.637307             0.051735
C            -7.000000            -4.849742             0.064234
C            -5.600000            -4.849742             0.011240
H            -7.550000            -1.472243             0.020952
H            -8.800000            -3.637307             0.048393
H            -7.550000            -5.802370             0.062859
C            -4.900000            -6.062178             0.086786
C            -3.500000            -6.062178             0.017192
H            -5.450000            -7.014806             0.070107
C            -2.800000            -7.274613             0.055072
C            -1.400000            -7.274613             0.093353
H            -3.350000            -8.227241             0.059004
C            -0.700000            -8.487049             0.094002
C             0.700000            -8.487049             0.087763
H            -1.250000            -9.439677             0.037144
H             1.250000            -9.439677             0.044491
