66
isomero_17_25
C             0.700000             1.212436             0.065821
C            -0.700000             1.212436             0.024493
C            -1.400000             0.000000             0.049023
C            -0.700000            -1.212436             0.063509
C             0.700000            -1.212436             0.005709
C             1.400000            -0.000000             0.008633
H             1.250000             2.165064             0.019232
H            -1.250000             2.165064             0.023992
C             2.800000             0.000000             0.077064
C             1.400000            -2.424871             0.000099
C             2.800000            -2.424871             0.004976
C             3.500000            -1.212436             0.081599
H             3.350000             0.952628             0.013524
C             4.900000            -1.212436             0.032004
C             3.500000            -3.637307             0.020500
C             4.900000            -3.637307             0.017765
C             5.600000            -2.424871             0.018318
H             5.450000            -0.259808             0.095771
C             7.000000            -2.424871             0.056023
C             5.600000            -4.849742             0.077368
C             7.000000            -4.849742             0.084574
C             7.700000            -3.637307             0.047769
H             7.550000            -1.472243             0.002440
H             7.550000            -5.802370             0.032485
H             8.800000            -3.637307             0.020980
C            -2.800000             0.000000             0.086665
C            -3.500000            -1.212436             0.036953
C            -2.800000            -2.424871             0.032355
B            -1.400000            -2.424871             0.054837
H            -3.350000             0.952628             0.021032
N            -0.700000            -3.637307             0.010339
C             0.700000            -3.637307             0.027244
C             1.400000            -4.849742             0.038858
C             2.800000            -4.849742             0.070522
C             3.500000            -6.062178             0.042955
C             4.900000            -6.062178             0.059388
H             5.450000            -7.014806             0.031194
C            -4.900000            -1.212436             0.072771
C            -5.600000            -2.424871             0.034432
C            -4.900000            -3.637307             0.097365
C            -3.500000            -3.637307             0.041291
H            -5.450000            -0.259808             0.047959
C            -2.800000            -4.849742             0.064207
C            -1.400000            -4.849742             0.077164
C            -0.700000            -6.062178             0.025965
C             0.700000            -6.062178             0.018236
C             1.400000            -7.274613             0.097804
C             2.800000            -7.274613             0.079959
H             3.350000            -8.227241             0.032608
C            -7.000000            -2.424871             0.033302
C            -7.700000            -3.637307             0.020635
C            -7.000000            -4.849742             0.068097
C            -5.600000            -4.849742             0.019659
H            -7.550000            -1.472243             0.027729
H            -8.800000            -3.637307             0.063594
H            -7.550000            -5.802370             0.010198
C            -4.900000            -6.062178             0.008068
C            -3.500000            -6.062178             0.074271
H            -5.450000            -7.014806             0.033494
C            -2.800000            -7.274613             0.061625
C            -1.400000            -7.274613             0.047518
H            -3.350000            -8.227241             0.074941
C            -0.700000            -8.487049             0.062671
C             0.700000            -8.487049             0.030056
H            -1.250000            -9.439677             0.092999
H             1.250000            -9.439677             0.048986
