66
isomero_19_12
C             0.700000             1.212436             0.065405
C            -0.700000             1.212436             0.012631
C            -1.400000             0.000000             0.000161
C            -0.700000            -1.212436             0.017394
C             0.700000            -1.212436             0.063386
C             1.400000            -0.000000             0.081804
H             1.250000             2.165064             0.044910
H            -1.250000             2.165064             0.080893
C             2.800000             0.000000             0.002870
C             1.400000            -2.424871             0.003503
C             2.800000            -2.424871             0.038349
C             3.500000            -1.212436             0.030674
H             3.350000             0.952628             0.031973
C             4.900000            -1.212436             0.023053
C             3.500000            -3.637307             0.088607
C             4.900000            -3.637307             0.048729
C             5.600000            -2.424871             0.004108
H             5.450000            -0.259808             0.071193
C             7.000000            -2.424871             0.064361
C             5.600000            -4.849742             0.095407
C             7.000000            -4.849742             0.066181
C             7.700000            -3.637307             0.028161
H             7.550000            -1.472243             0.077893
H             7.550000            -5.802370             0.007393
H             8.800000            -3.637307             0.028966
C            -2.800000             0.000000             0.033132
C            -3.500000            -1.212436             0.020354
C            -2.800000            -2.424871             0.058621
C            -1.400000            -2.424871             0.056102
H            -3.350000             0.952628             0.000482
C            -0.700000            -3.637307             0.069091
C             0.700000            -3.637307             0.029691
C             1.400000            -4.849742             0.049955
C             2.800000            -4.849742             0.040333
C             3.500000            -6.062178             0.062638
C             4.900000            -6.062178             0.065266
H             5.450000            -7.014806             0.006441
N            -4.900000            -1.212436             0.062764
B            -5.600000            -2.424871             0.048934
C            -4.900000            -3.637307             0.001162
C            -3.500000            -3.637307             0.000571
H            -5.450000            -0.259808             0.048706
C            -2.800000            -4.849742             0.080029
C            -1.400000            -4.849742             0.070636
C            -0.700000            -6.062178             0.023399
C             0.700000            -6.062178             0.040517
C             1.400000            -7.274613             0.070418
C             2.800000            -7.274613             0.029517
H             3.350000            -8.227241             0.088200
C            -7.000000            -2.424871             0.006354
C            -7.700000            -3.637307             0.062368
C            -7.000000            -4.849742             0.059666
C            -5.600000            -4.849742             0.079045
H            -7.550000            -1.472243             0.059951
H            -8.800000            -3.637307             0.084734
H            -7.550000            -5.802370             0.015852
C            -4.900000            -6.062178             0.095256
C            -3.500000            -6.062178             0.066394
H            -5.450000            -7.014806             0.087710
C            -2.800000            -7.274613             0.011757
C            -1.400000            -7.274613             0.075753
H            -3.350000            -8.227241             0.049350
C            -0.700000            -8.487049             0.022891
C             0.700000            -8.487049             0.050999
H            -1.250000            -9.439677             0.014532
H             1.250000            -9.439677             0.008409
