66
isomero_20_19
C             0.700000             1.212436             0.059262
C            -0.700000             1.212436             0.048817
C            -1.400000             0.000000             0.024621
C            -0.700000            -1.212436             0.094274
C             0.700000            -1.212436             0.048583
C             1.400000            -0.000000             0.091283
H             1.250000             2.165064             0.013218
H            -1.250000             2.165064             0.030889
C             2.800000             0.000000             0.041605
C             1.400000            -2.424871             0.040538
C             2.800000            -2.424871             0.096596
C             3.500000            -1.212436             0.018571
H             3.350000             0.952628             0.075660
C             4.900000            -1.212436             0.094742
C             3.500000            -3.637307             0.056870
C             4.900000            -3.637307             0.007920
C             5.600000            -2.424871             0.006155
H             5.450000            -0.259808             0.062988
C             7.000000            -2.424871             0.020015
C             5.600000            -4.849742             0.075203
C             7.000000            -4.849742             0.032832
C             7.700000            -3.637307             0.045971
H             7.550000            -1.472243             0.045962
H             7.550000            -5.802370             0.033437
H             8.800000            -3.637307             0.069324
C            -2.800000             0.000000             0.062715
C            -3.500000            -1.212436             0.011643
C            -2.800000            -2.424871             0.005701
C            -1.400000            -2.424871             0.043162
H            -3.350000             0.952628             0.093220
C            -0.700000            -3.637307             0.010678
C             0.700000            -3.637307             0.002156
C             1.400000            -4.849742             0.068162
C             2.800000            -4.849742             0.073453
C             3.500000            -6.062178             0.024260
C             4.900000            -6.062178             0.088168
H             5.450000            -7.014806             0.059371
C            -4.900000            -1.212436             0.058845
N            -5.600000            -2.424871             0.041426
C            -4.900000            -3.637307             0.007835
C            -3.500000            -3.637307             0.072741
H            -5.450000            -0.259808             0.085416
C            -2.800000            -4.849742             0.034374
C            -1.400000            -4.849742             0.087374
C            -0.700000            -6.062178             0.082217
C             0.700000            -6.062178             0.019201
C             1.400000            -7.274613             0.066110
C             2.800000            -7.274613             0.008499
H             3.350000            -8.227241             0.064246
B            -7.000000            -2.424871             0.056242
C            -7.700000            -3.637307             0.091114
C            -7.000000            -4.849742             0.082670
C            -5.600000            -4.849742             0.035749
H            -7.550000            -1.472243             0.076440
H            -8.800000            -3.637307             0.073421
H            -7.550000            -5.802370             0.008031
C            -4.900000            -6.062178             0.050857
C            -3.500000            -6.062178             0.030481
H            -5.450000            -7.014806             0.059768
C            -2.800000            -7.274613             0.050549
C            -1.400000            -7.274613             0.016902
H            -3.350000            -8.227241             0.080958
C            -0.700000            -8.487049             0.065241
C             0.700000            -8.487049             0.053655
H            -1.250000            -9.439677             0.089041
H             1.250000            -9.439677             0.005462
