66
isomero_12_11
C             0.700000             1.212436             0.015219
C            -0.700000             1.212436             0.002499
C            -1.400000             0.000000             0.008219
C            -0.700000            -1.212436             0.015621
C             0.700000            -1.212436             0.097629
C             1.400000            -0.000000             0.016761
H             1.250000             2.165064             0.072780
H            -1.250000             2.165064             0.022062
C             2.800000             0.000000             0.025629
C             1.400000            -2.424871             0.049780
C             2.800000            -2.424871             0.000323
C             3.500000            -1.212436             0.004304
H             3.350000             0.952628             0.058452
C             4.900000            -1.212436             0.087939
C             3.500000            -3.637307             0.020619
C             4.900000            -3.637307             0.096540
C             5.600000            -2.424871             0.051903
H             5.450000            -0.259808             0.065622
C             7.000000            -2.424871             0.019757
C             5.600000            -4.849742             0.009194
C             7.000000            -4.849742             0.045033
C             7.700000            -3.637307             0.029924
H             7.550000            -1.472243             0.054078
H             7.550000            -5.802370             0.062113
H             8.800000            -3.637307             0.029427
C            -2.800000             0.000000             0.033009
N            -3.500000            -1.212436             0.000005
C            -2.800000            -2.424871             0.008662
C            -1.400000            -2.424871             0.095530
H            -3.350000             0.952628             0.018661
C            -0.700000            -3.637307             0.069683
C             0.700000            -3.637307             0.067238
C             1.400000            -4.849742             0.038462
C             2.800000            -4.849742             0.076956
C             3.500000            -6.062178             0.025819
C             4.900000            -6.062178             0.021068
H             5.450000            -7.014806             0.078801
B            -4.900000            -1.212436             0.085869
C            -5.600000            -2.424871             0.029987
C            -4.900000            -3.637307             0.082455
C            -3.500000            -3.637307             0.050087
H            -5.450000            -0.259808             0.033443
C            -2.800000            -4.849742             0.014656
C            -1.400000            -4.849742             0.026277
C            -0.700000            -6.062178             0.064976
C             0.700000            -6.062178             0.007881
C             1.400000            -7.274613             0.081102
C             2.800000            -7.274613             0.058545
H             3.350000            -8.227241             0.074918
C            -7.000000            -2.424871             0.065059
C            -7.700000            -3.637307             0.097156
C            -7.000000            -4.849742             0.097776
C            -5.600000            -4.849742             0.070119
H            -7.550000            -1.472243             0.012161
H            -8.800000            -3.637307             0.081523
H            -7.550000            -5.802370             0.073309
C            -4.900000            -6.062178             0.093187
C            -3.500000            -6.062178             0.009755
H            -5.450000            -7.014806             0.076344
C            -2.800000            -7.274613             0.038226
C            -1.400000            -7.274613             0.049100
H            -3.350000            -8.227241             0.056171
C            -0.700000            -8.487049             0.011424
C             0.700000            -8.487049             0.009077
H            -1.250000            -9.439677             0.054769
H             1.250000            -9.439677             0.009500
