66
isomero_18_17
C             0.700000             1.212436             0.055047
C            -0.700000             1.212436             0.069986
C            -1.400000             0.000000             0.070742
C            -0.700000            -1.212436             0.024196
C             0.700000            -1.212436             0.049127
C             1.400000            -0.000000             0.055333
H             1.250000             2.165064             0.044069
H            -1.250000             2.165064             0.066830
C             2.800000             0.000000             0.093410
C             1.400000            -2.424871             0.065224
C             2.800000            -2.424871             0.016720
C             3.500000            -1.212436             0.024005
H             3.350000             0.952628             0.038533
C             4.900000            -1.212436             0.032067
C             3.500000            -3.637307             0.057773
C             4.900000            -3.637307             0.098720
C             5.600000            -2.424871             0.026845
H             5.450000            -0.259808             0.057807
C             7.000000            -2.424871             0.029213
C             5.600000            -4.849742             0.091834
C             7.000000            -4.849742             0.011439
C             7.700000            -3.637307             0.047436
H             7.550000            -1.472243             0.079915
H             7.550000            -5.802370             0.082583
H             8.800000            -3.637307             0.037390
C            -2.800000             0.000000             0.029160
C            -3.500000            -1.212436             0.037456
B            -2.800000            -2.424871             0.098673
N            -1.400000            -2.424871             0.043330
H            -3.350000             0.952628             0.081543
C            -0.700000            -3.637307             0.006426
C             0.700000            -3.637307             0.042776
C             1.400000            -4.849742             0.001995
C             2.800000            -4.849742             0.038152
C             3.500000            -6.062178             0.041397
C             4.900000            -6.062178             0.055982
H             5.450000            -7.014806             0.088342
C            -4.900000            -1.212436             0.048655
C            -5.600000            -2.424871             0.076406
C            -4.900000            -3.637307             0.067084
C            -3.500000            -3.637307             0.080869
H            -5.450000            -0.259808             0.099238
C            -2.800000            -4.849742             0.082961
C            -1.400000            -4.849742             0.020735
C            -0.700000            -6.062178             0.087521
C             0.700000            -6.062178             0.013254
C             1.400000            -7.274613             0.038705
C             2.800000            -7.274613             0.013553
H             3.350000            -8.227241             0.097152
C            -7.000000            -2.424871             0.007689
C            -7.700000            -3.637307             0.077269
C            -7.000000            -4.849742             0.077255
C            -5.600000            -4.849742             0.031508
H            -7.550000            -1.472243             0.040887
H            -8.800000            -3.637307             0.055258
H            -7.550000            -5.802370             0.043497
C            -4.900000            -6.062178             0.011792
C            -3.500000            -6.062178             0.076470
H            -5.450000            -7.014806             0.066183
C            -2.800000            -7.274613             0.085949
C            -1.400000            -7.274613             0.093447
H            -3.350000            -8.227241             0.046983
C            -0.700000            -8.487049             0.082389
C             0.700000            -8.487049             0.008934
H            -1.250000            -9.439677             0.029963
H             1.250000            -9.439677             0.007920
