66
isomero_28_20
C             0.700000             1.212436             0.068594
C            -0.700000             1.212436             0.037081
C            -1.400000             0.000000             0.070901
C            -0.700000            -1.212436             0.055025
C             0.700000            -1.212436             0.045312
C             1.400000            -0.000000             0.070474
H             1.250000             2.165064             0.072238
H            -1.250000             2.165064             0.018796
C             2.800000             0.000000             0.089066
C             1.400000            -2.424871             0.023847
C             2.800000            -2.424871             0.015859
C             3.500000            -1.212436             0.003823
H             3.350000             0.952628             0.061160
C             4.900000            -1.212436             0.042646
C             3.500000            -3.637307             0.088776
C             4.900000            -3.637307             0.055790
C             5.600000            -2.424871             0.036347
H             5.450000            -0.259808             0.037322
C             7.000000            -2.424871             0.053671
C             5.600000            -4.849742             0.006213
C             7.000000            -4.849742             0.060367
C             7.700000            -3.637307             0.011074
H             7.550000            -1.472243             0.018379
H             7.550000            -5.802370             0.050771
H             8.800000            -3.637307             0.050389
C            -2.800000             0.000000             0.040833
C            -3.500000            -1.212436             0.063258
C            -2.800000            -2.424871             0.075851
C            -1.400000            -2.424871             0.064336
H            -3.350000             0.952628             0.074219
C            -0.700000            -3.637307             0.036587
C             0.700000            -3.637307             0.039783
C             1.400000            -4.849742             0.057242
C             2.800000            -4.849742             0.008928
C             3.500000            -6.062178             0.083108
C             4.900000            -6.062178             0.006457
H             5.450000            -7.014806             0.059007
C            -4.900000            -1.212436             0.055164
C            -5.600000            -2.424871             0.090891
C            -4.900000            -3.637307             0.021530
C            -3.500000            -3.637307             0.029392
H            -5.450000            -0.259808             0.086157
C            -2.800000            -4.849742             0.090418
C            -1.400000            -4.849742             0.007593
C            -0.700000            -6.062178             0.086705
C             0.700000            -6.062178             0.092227
C             1.400000            -7.274613             0.089711
C             2.800000            -7.274613             0.067122
H             3.350000            -8.227241             0.038009
N            -7.000000            -2.424871             0.021867
B            -7.700000            -3.637307             0.037447
C            -7.000000            -4.849742             0.058372
C            -5.600000            -4.849742             0.024484
H            -7.550000            -1.472243             0.093535
H            -8.800000            -3.637307             0.041936
H            -7.550000            -5.802370             0.065050
C            -4.900000            -6.062178             0.004556
C            -3.500000            -6.062178             0.034771
H            -5.450000            -7.014806             0.029427
C            -2.800000            -7.274613             0.030816
C            -1.400000            -7.274613             0.010644
H            -3.350000            -8.227241             0.085841
C            -0.700000            -8.487049             0.002641
C             0.700000            -8.487049             0.013081
H            -1.250000            -9.439677             0.080069
H             1.250000            -9.439677             0.041663
