66
isomero_17_18
C             0.700000             1.212436             0.077029
C            -0.700000             1.212436             0.051564
C            -1.400000             0.000000             0.094674
C            -0.700000            -1.212436             0.048012
C             0.700000            -1.212436             0.033467
C             1.400000            -0.000000             0.074461
H             1.250000             2.165064             0.061386
H            -1.250000             2.165064             0.062009
C             2.800000             0.000000             0.061089
C             1.400000            -2.424871             0.069951
C             2.800000            -2.424871             0.061408
C             3.500000            -1.212436             0.074309
H             3.350000             0.952628             0.065920
C             4.900000            -1.212436             0.096248
C             3.500000            -3.637307             0.050570
C             4.900000            -3.637307             0.016087
C             5.600000            -2.424871             0.041533
H             5.450000            -0.259808             0.041111
C             7.000000            -2.424871             0.013222
C             5.600000            -4.849742             0.030371
C             7.000000            -4.849742             0.067480
C             7.700000            -3.637307             0.010034
H             7.550000            -1.472243             0.090818
H             7.550000            -5.802370             0.087900
H             8.800000            -3.637307             0.011443
C            -2.800000             0.000000             0.068739
C            -3.500000            -1.212436             0.045289
N            -2.800000            -2.424871             0.084374
B            -1.400000            -2.424871             0.019293
H            -3.350000             0.952628             0.066908
C            -0.700000            -3.637307             0.053749
C             0.700000            -3.637307             0.048968
C             1.400000            -4.849742             0.030292
C             2.800000            -4.849742             0.094652
C             3.500000            -6.062178             0.007535
C             4.900000            -6.062178             0.033814
H             5.450000            -7.014806             0.051721
C            -4.900000            -1.212436             0.099900
C            -5.600000            -2.424871             0.016122
C            -4.900000            -3.637307             0.017126
C            -3.500000            -3.637307             0.015869
H            -5.450000            -0.259808             0.027729
C            -2.800000            -4.849742             0.073073
C            -1.400000            -4.849742             0.066489
C            -0.700000            -6.062178             0.016025
C             0.700000            -6.062178             0.002860
C             1.400000            -7.274613             0.092746
C             2.800000            -7.274613             0.074447
H             3.350000            -8.227241             0.060296
C            -7.000000            -2.424871             0.035963
C            -7.700000            -3.637307             0.062323
C            -7.000000            -4.849742             0.040386
C            -5.600000            -4.849742             0.064857
H            -7.550000            -1.472243             0.056098
H            -8.800000            -3.637307             0.019537
H            -7.550000            -5.802370             0.008252
C            -4.900000            -6.062178             0.072770
C            -3.500000            -6.062178             0.052145
H            -5.450000            -7.014806             0.051672
C            -2.800000            -7.274613             0.002560
C            -1.400000            -7.274613             0.046468
H            -3.350000            -8.227241             0.049825
C            -0.700000            -8.487049             0.024777
C             0.700000            -8.487049             0.083863
H            -1.250000            -9.439677             0.093209
H             1.250000            -9.439677             0.098669
