66
isomero_20_28
C             0.700000             1.212436             0.029100
C            -0.700000             1.212436             0.057245
C            -1.400000             0.000000             0.050136
C            -0.700000            -1.212436             0.072893
C             0.700000            -1.212436             0.047203
C             1.400000            -0.000000             0.092833
H             1.250000             2.165064             0.095582
H            -1.250000             2.165064             0.067050
C             2.800000             0.000000             0.051282
C             1.400000            -2.424871             0.080184
C             2.800000            -2.424871             0.022282
C             3.500000            -1.212436             0.088466
H             3.350000             0.952628             0.071821
C             4.900000            -1.212436             0.082571
C             3.500000            -3.637307             0.011112
C             4.900000            -3.637307             0.056278
C             5.600000            -2.424871             0.087427
H             5.450000            -0.259808             0.081719
C             7.000000            -2.424871             0.006911
C             5.600000            -4.849742             0.054675
C             7.000000            -4.849742             0.098721
C             7.700000            -3.637307             0.078902
H             7.550000            -1.472243             0.023638
H             7.550000            -5.802370             0.039011
H             8.800000            -3.637307             0.012788
C            -2.800000             0.000000             0.010472
C            -3.500000            -1.212436             0.033166
C            -2.800000            -2.424871             0.074522
C            -1.400000            -2.424871             0.041225
H            -3.350000             0.952628             0.085712
C            -0.700000            -3.637307             0.059087
C             0.700000            -3.637307             0.067818
C             1.400000            -4.849742             0.053510
C             2.800000            -4.849742             0.009231
C             3.500000            -6.062178             0.039108
C             4.900000            -6.062178             0.044720
H             5.450000            -7.014806             0.005871
C            -4.900000            -1.212436             0.071692
C            -5.600000            -2.424871             0.029850
C            -4.900000            -3.637307             0.099593
C            -3.500000            -3.637307             0.008458
H            -5.450000            -0.259808             0.001521
C            -2.800000            -4.849742             0.019968
C            -1.400000            -4.849742             0.080717
C            -0.700000            -6.062178             0.047019
C             0.700000            -6.062178             0.031251
C             1.400000            -7.274613             0.028584
C             2.800000            -7.274613             0.098026
H             3.350000            -8.227241             0.075830
B            -7.000000            -2.424871             0.013044
N            -7.700000            -3.637307             0.062721
C            -7.000000            -4.849742             0.045744
C            -5.600000            -4.849742             0.067630
H            -7.550000            -1.472243             0.070719
H            -8.800000            -3.637307             0.017362
H            -7.550000            -5.802370             0.050463
C            -4.900000            -6.062178             0.053188
C            -3.500000            -6.062178             0.053616
H            -5.450000            -7.014806             0.041575
C            -2.800000            -7.274613             0.055595
C            -1.400000            -7.274613             0.067562
H            -3.350000            -8.227241             0.051154
C            -0.700000            -8.487049             0.056492
C             0.700000            -8.487049             0.009421
H            -1.250000            -9.439677             0.047012
H             1.250000            -9.439677             0.016802
