66
isomero_25_17
C             0.700000             1.212436             0.072105
C            -0.700000             1.212436             0.098215
C            -1.400000             0.000000             0.091892
C            -0.700000            -1.212436             0.040634
C             0.700000            -1.212436             0.074648
C             1.400000            -0.000000             0.043896
H             1.250000             2.165064             0.084842
H            -1.250000             2.165064             0.044541
C             2.800000             0.000000             0.071619
C             1.400000            -2.424871             0.065688
C             2.800000            -2.424871             0.006730
C             3.500000            -1.212436             0.061357
H             3.350000             0.952628             0.023616
C             4.900000            -1.212436             0.053281
C             3.500000            -3.637307             0.018269
C             4.900000            -3.637307             0.098402
C             5.600000            -2.424871             0.069214
H             5.450000            -0.259808             0.029045
C             7.000000            -2.424871             0.067050
C             5.600000            -4.849742             0.057405
C             7.000000            -4.849742             0.081760
C             7.700000            -3.637307             0.025045
H             7.550000            -1.472243             0.023370
H             7.550000            -5.802370             0.026953
H             8.800000            -3.637307             0.021431
C            -2.800000             0.000000             0.097169
C            -3.500000            -1.212436             0.094398
C            -2.800000            -2.424871             0.089218
N            -1.400000            -2.424871             0.003388
H            -3.350000             0.952628             0.030009
B            -0.700000            -3.637307             0.034285
C             0.700000            -3.637307             0.021415
C             1.400000            -4.849742             0.098414
C             2.800000            -4.849742             0.030627
C             3.500000            -6.062178             0.070349
C             4.900000            -6.062178             0.045230
H             5.450000            -7.014806             0.094097
C            -4.900000            -1.212436             0.037912
C            -5.600000            -2.424871             0.088998
C            -4.900000            -3.637307             0.024427
C            -3.500000            -3.637307             0.009627
H            -5.450000            -0.259808             0.021350
C            -2.800000            -4.849742             0.046280
C            -1.400000            -4.849742             0.081041
C            -0.700000            -6.062178             0.064079
C             0.700000            -6.062178             0.055855
C             1.400000            -7.274613             0.067971
C             2.800000            -7.274613             0.032652
H             3.350000            -8.227241             0.045400
C            -7.000000            -2.424871             0.066541
C            -7.700000            -3.637307             0.032392
C            -7.000000            -4.849742             0.036893
C            -5.600000            -4.849742             0.069426
H            -7.550000            -1.472243             0.038965
H            -8.800000            -3.637307             0.042766
H            -7.550000            -5.802370             0.022187
C            -4.900000            -6.062178             0.075249
C            -3.500000            -6.062178             0.077491
H            -5.450000            -7.014806             0.043578
C            -2.800000            -7.274613             0.007145
C            -1.400000            -7.274613             0.066448
H            -3.350000            -8.227241             0.043125
C            -0.700000            -8.487049             0.092829
C             0.700000            -8.487049             0.074644
H            -1.250000            -9.439677             0.035986
H             1.250000            -9.439677             0.037646
