66
isomero_19_20
C             0.700000             1.212436             0.050128
C            -0.700000             1.212436             0.097009
C            -1.400000             0.000000             0.013223
C            -0.700000            -1.212436             0.096815
C             0.700000            -1.212436             0.079916
C             1.400000            -0.000000             0.097850
H             1.250000             2.165064             0.091625
H            -1.250000             2.165064             0.052912
C             2.800000             0.000000             0.097167
C             1.400000            -2.424871             0.026430
C             2.800000            -2.424871             0.050832
C             3.500000            -1.212436             0.048643
H             3.350000             0.952628             0.049672
C             4.900000            -1.212436             0.032243
C             3.500000            -3.637307             0.069464
C             4.900000            -3.637307             0.027679
C             5.600000            -2.424871             0.046421
H             5.450000            -0.259808             0.069057
C             7.000000            -2.424871             0.020116
C             5.600000            -4.849742             0.053863
C             7.000000            -4.849742             0.038469
C             7.700000            -3.637307             0.079603
H             7.550000            -1.472243             0.016187
H             7.550000            -5.802370             0.066596
H             8.800000            -3.637307             0.031694
C            -2.800000             0.000000             0.033583
C            -3.500000            -1.212436             0.049621
C            -2.800000            -2.424871             0.061336
C            -1.400000            -2.424871             0.029539
H            -3.350000             0.952628             0.004719
C            -0.700000            -3.637307             0.080078
C             0.700000            -3.637307             0.019967
C             1.400000            -4.849742             0.043797
C             2.800000            -4.849742             0.038385
C             3.500000            -6.062178             0.053992
C             4.900000            -6.062178             0.039471
H             5.450000            -7.014806             0.043135
C            -4.900000            -1.212436             0.016017
B            -5.600000            -2.424871             0.022012
C            -4.900000            -3.637307             0.002715
C            -3.500000            -3.637307             0.053248
H            -5.450000            -0.259808             0.071641
C            -2.800000            -4.849742             0.000314
C            -1.400000            -4.849742             0.037632
C            -0.700000            -6.062178             0.022380
C             0.700000            -6.062178             0.092749
C             1.400000            -7.274613             0.036458
C             2.800000            -7.274613             0.088256
H             3.350000            -8.227241             0.010339
N            -7.000000            -2.424871             0.002348
C            -7.700000            -3.637307             0.002723
C            -7.000000            -4.849742             0.016005
C            -5.600000            -4.849742             0.064378
H            -7.550000            -1.472243             0.078648
H            -8.800000            -3.637307             0.035853
H            -7.550000            -5.802370             0.045243
C            -4.900000            -6.062178             0.038499
C            -3.500000            -6.062178             0.089711
H            -5.450000            -7.014806             0.094188
C            -2.800000            -7.274613             0.022106
C            -1.400000            -7.274613             0.078033
H            -3.350000            -8.227241             0.045317
C            -0.700000            -8.487049             0.052162
C             0.700000            -8.487049             0.094893
H            -1.250000            -9.439677             0.017015
H             1.250000            -9.439677             0.068772
