66
isomero_2_1
C             0.700000             1.212436             0.015444
C            -0.700000             1.212436             0.058888
C            -1.400000             0.000000             0.062931
C            -0.700000            -1.212436             0.028095
C             0.700000            -1.212436             0.015583
C             1.400000            -0.000000             0.052341
H             1.250000             2.165064             0.025931
H            -1.250000             2.165064             0.007961
C             2.800000             0.000000             0.004558
C             1.400000            -2.424871             0.007453
C             2.800000            -2.424871             0.048007
C             3.500000            -1.212436             0.053868
H             3.350000             0.952628             0.086232
C             4.900000            -1.212436             0.029251
C             3.500000            -3.637307             0.000412
C             4.900000            -3.637307             0.054412
C             5.600000            -2.424871             0.061870
H             5.450000            -0.259808             0.037255
C             7.000000            -2.424871             0.046685
C             5.600000            -4.849742             0.081786
C             7.000000            -4.849742             0.008320
C             7.700000            -3.637307             0.006729
H             7.550000            -1.472243             0.081545
H             7.550000            -5.802370             0.025109
H             8.800000            -3.637307             0.023185
C            -2.800000             0.000000             0.036970
C            -3.500000            -1.212436             0.001195
C            -2.800000            -2.424871             0.038630
C            -1.400000            -2.424871             0.080915
H            -3.350000             0.952628             0.077791
C            -0.700000            -3.637307             0.039034
C             0.700000            -3.637307             0.082892
C             1.400000            -4.849742             0.048069
C             2.800000            -4.849742             0.023741
C             3.500000            -6.062178             0.077234
C             4.900000            -6.062178             0.042072
H             5.450000            -7.014806             0.002762
C            -4.900000            -1.212436             0.036445
C            -5.600000            -2.424871             0.043302
C            -4.900000            -3.637307             0.049133
C            -3.500000            -3.637307             0.028658
H            -5.450000            -0.259808             0.047391
C            -2.800000            -4.849742             0.044859
C            -1.400000            -4.849742             0.095657
C            -0.700000            -6.062178             0.058936
C             0.700000            -6.062178             0.049128
C             1.400000            -7.274613             0.022242
C             2.800000            -7.274613             0.064723
H             3.350000            -8.227241             0.034088
C            -7.000000            -2.424871             0.068490
C            -7.700000            -3.637307             0.090003
C            -7.000000            -4.849742             0.032034
C            -5.600000            -4.849742             0.030078
H            -7.550000            -1.472243             0.009417
H            -8.800000            -3.637307             0.020356
H            -7.550000            -5.802370             0.097015
C            -4.900000            -6.062178             0.064338
C            -3.500000            -6.062178             0.040960
H            -5.450000            -7.014806             0.022640
C            -2.800000            -7.274613             0.061952
C            -1.400000            -7.274613             0.085808
H            -3.350000            -8.227241             0.089806
C            -0.700000            -8.487049             0.060175
C             0.700000            -8.487049             0.066359
H            -1.250000            -9.439677             0.044520
H             1.250000            -9.439677             0.014531
