122
isomero_40_52
C             0.700000             1.212436             0.015279
C            -0.700000             1.212436             0.050157
C            -1.400000             0.000000             0.082191
C            -0.700000            -1.212436             0.050013
C             0.700000            -1.212436             0.092688
C             1.400000            -0.000000             0.078530
H             1.250000             2.165064             0.000458
H            -1.250000             2.165064             0.013682
C             2.800000             0.000000             0.055567
C             1.400000            -2.424871             0.015291
C             2.800000            -2.424871             0.016246
C             3.500000            -1.212436             0.062057
H             3.350000             0.952628             0.042669
C             4.900000            -1.212436             0.029513
C             3.500000            -3.637307             0.031540
C             4.900000            -3.637307             0.016952
C             5.600000            -2.424871             0.098100
H             5.450000            -0.259808             0.058565
C             7.000000            -2.424871             0.054608
C             5.600000            -4.849742             0.088256
C             7.000000            -4.849742             0.070748
C             7.700000            -3.637307             0.067372
H             7.550000            -1.472243             0.096729
C             9.100000            -3.637307             0.085297
C             7.700000            -6.062178             0.052262
C             9.100000            -6.062178             0.046288
C             9.800000            -4.849742             0.061460
H             9.650000            -2.684679             0.091090
C            11.200000            -4.849742             0.097076
C             9.800000            -7.274613             0.081507
C            11.200000            -7.274613             0.096339
C            11.900000            -6.062178             0.076142
H            11.750000            -3.897114             0.025780
H            11.750000            -8.227241             0.064195
H            13.000000            -6.062178             0.087512
C            -2.800000             0.000000             0.072813
C            -3.500000            -1.212436             0.069321
C            -2.800000            -2.424871             0.095111
C            -1.400000            -2.424871             0.056869
H            -3.350000             0.952628             0.048147
C            -0.700000            -3.637307             0.013613
C             0.700000            -3.637307             0.038758
C             1.400000            -4.849742             0.020529
C             2.800000            -4.849742             0.084897
C             3.500000            -6.062178             0.072580
C             4.900000            -6.062178             0.025382
C             5.600000            -7.274613             0.007115
C             7.000000            -7.274613             0.034221
C             7.700000            -8.487049             0.072868
C             9.100000            -8.487049             0.015668
H             9.650000            -9.439677             0.071429
C            -4.900000            -1.212436             0.068869
C            -5.600000            -2.424871             0.021876
C            -4.900000            -3.637307             0.092365
C            -3.500000            -3.637307             0.034142
H            -5.450000            -0.259808             0.053121
C            -2.800000            -4.849742             0.016330
C            -1.400000            -4.849742             0.079668
C            -0.700000            -6.062178             0.094568
C             0.700000            -6.062178             0.054010
C             1.400000            -7.274613             0.047029
C             2.800000            -7.274613             0.029685
C             3.500000            -8.487049             0.060887
C             4.900000            -8.487049             0.071368
C             5.600000            -9.699485             0.034802
C             7.000000            -9.699485             0.022352
H             7.550000           -10.652112             0.064841
C            -7.000000            -2.424871             0.021088
C            -7.700000            -3.637307             0.097550
B            -7.000000            -4.849742             0.012868
C            -5.600000            -4.849742             0.043565
H            -7.550000            -1.472243             0.077151
C            -4.900000            -6.062178             0.046547
C            -3.500000            -6.062178             0.004173
C            -2.800000            -7.274613             0.008211
C            -1.400000            -7.274613             0.069794
C            -0.700000            -8.487049             0.029996
C             0.700000            -8.487049             0.058559
C             1.400000            -9.699485             0.035915
C             2.800000            -9.699485             0.094498
C             3.500000           -10.911920             0.039746
C             4.900000           -10.911920             0.075726
H             5.450000           -11.864548             0.098306
C            -9.100000            -3.637307             0.011267
C            -9.800000            -4.849742             0.087504
C            -9.100000            -6.062178             0.038728
N            -7.700000            -6.062178             0.098225
H            -9.650000            -2.684679             0.083173
C            -7.000000            -7.274613             0.096587
C            -5.600000            -7.274613             0.023055
C            -4.900000            -8.487049             0.001748
C            -3.500000            -8.487049             0.012261
C            -2.800000            -9.699485             0.085500
C            -1.400000            -9.699485             0.077707
C            -0.700000           -10.911920             0.022800
C             0.700000           -10.911920             0.009697
C             1.400000           -12.124356             0.096977
C             2.800000           -12.124356             0.068598
H             3.350000           -13.076984             0.055624
C           -11.200000            -4.849742             0.078721
C           -11.900000            -6.062178             0.032925
C           -11.200000            -7.274613             0.016232
C            -9.800000            -7.274613             0.057721
H           -11.750000            -3.897114             0.026353
H           -13.000000            -6.062178             0.023759
H           -11.750000            -8.227241             0.034723
C            -9.100000            -8.487049             0.047989
C            -7.700000            -8.487049             0.096269
H            -9.650000            -9.439677             0.040973
C            -7.000000            -9.699485             0.011897
C            -5.600000            -9.699485             0.000923
H            -7.550000           -10.652112             0.043068
C            -4.900000           -10.911920             0.098755
C            -3.500000           -10.911920             0.025538
H            -5.450000           -11.864548             0.087844
C            -2.800000           -12.124356             0.053162
C            -1.400000           -12.124356             0.075757
H            -3.350000           -13.076984             0.067820
C            -0.700000           -13.336791             0.080088
C             0.700000           -13.336791             0.014672
H            -1.250000           -14.289419             0.011455
H             1.250000           -14.289419             0.025814
