122
isomero_50_51
C             0.700000             1.212436             0.086158
C            -0.700000             1.212436             0.033319
C            -1.400000             0.000000             0.094209
C            -0.700000            -1.212436             0.054658
C             0.700000            -1.212436             0.095892
C             1.400000            -0.000000             0.014736
H             1.250000             2.165064             0.078092
H            -1.250000             2.165064             0.004508
C             2.800000             0.000000             0.029532
C             1.400000            -2.424871             0.089477
C             2.800000            -2.424871             0.003660
C             3.500000            -1.212436             0.094785
H             3.350000             0.952628             0.016868
C             4.900000            -1.212436             0.049814
C             3.500000            -3.637307             0.028875
C             4.900000            -3.637307             0.089883
C             5.600000            -2.424871             0.002325
H             5.450000            -0.259808             0.032982
C             7.000000            -2.424871             0.046203
C             5.600000            -4.849742             0.075974
C             7.000000            -4.849742             0.018284
C             7.700000            -3.637307             0.085377
H             7.550000            -1.472243             0.091217
C             9.100000            -3.637307             0.012730
C             7.700000            -6.062178             0.047643
C             9.100000            -6.062178             0.020250
C             9.800000            -4.849742             0.049830
H             9.650000            -2.684679             0.097248
C            11.200000            -4.849742             0.012443
C             9.800000            -7.274613             0.049976
C            11.200000            -7.274613             0.029199
C            11.900000            -6.062178             0.063878
H            11.750000            -3.897114             0.085041
H            11.750000            -8.227241             0.035765
H            13.000000            -6.062178             0.035858
C            -2.800000             0.000000             0.058907
C            -3.500000            -1.212436             0.021890
C            -2.800000            -2.424871             0.072151
C            -1.400000            -2.424871             0.035983
H            -3.350000             0.952628             0.038964
C            -0.700000            -3.637307             0.059304
C             0.700000            -3.637307             0.023557
C             1.400000            -4.849742             0.031708
C             2.800000            -4.849742             0.041971
C             3.500000            -6.062178             0.099397
C             4.900000            -6.062178             0.018561
C             5.600000            -7.274613             0.010732
C             7.000000            -7.274613             0.012601
C             7.700000            -8.487049             0.089978
C             9.100000            -8.487049             0.088238
H             9.650000            -9.439677             0.076359
C            -4.900000            -1.212436             0.043262
C            -5.600000            -2.424871             0.052555
C            -4.900000            -3.637307             0.077789
C            -3.500000            -3.637307             0.039843
H            -5.450000            -0.259808             0.044272
C            -2.800000            -4.849742             0.095924
C            -1.400000            -4.849742             0.028582
C            -0.700000            -6.062178             0.075886
C             0.700000            -6.062178             0.090808
C             1.400000            -7.274613             0.029138
C             2.800000            -7.274613             0.062942
C             3.500000            -8.487049             0.006510
C             4.900000            -8.487049             0.003013
C             5.600000            -9.699485             0.074770
C             7.000000            -9.699485             0.055370
H             7.550000           -10.652112             0.074650
C            -7.000000            -2.424871             0.026854
C            -7.700000            -3.637307             0.028342
C            -7.000000            -4.849742             0.040212
C            -5.600000            -4.849742             0.049761
H            -7.550000            -1.472243             0.004082
N            -4.900000            -6.062178             0.063042
B            -3.500000            -6.062178             0.067309
C            -2.800000            -7.274613             0.070612
C            -1.400000            -7.274613             0.019948
C            -0.700000            -8.487049             0.048580
C             0.700000            -8.487049             0.060048
C             1.400000            -9.699485             0.071880
C             2.800000            -9.699485             0.028614
C             3.500000           -10.911920             0.090980
C             4.900000           -10.911920             0.087981
H             5.450000           -11.864548             0.064249
C            -9.100000            -3.637307             0.031336
C            -9.800000            -4.849742             0.046854
C            -9.100000            -6.062178             0.059896
C            -7.700000            -6.062178             0.064457
H            -9.650000            -2.684679             0.089152
C            -7.000000            -7.274613             0.077263
C            -5.600000            -7.274613             0.099542
C            -4.900000            -8.487049             0.014863
C            -3.500000            -8.487049             0.030735
C            -2.800000            -9.699485             0.005581
C            -1.400000            -9.699485             0.070442
C            -0.700000           -10.911920             0.007747
C             0.700000           -10.911920             0.098265
C             1.400000           -12.124356             0.082160
C             2.800000           -12.124356             0.078788
H             3.350000           -13.076984             0.038593
C           -11.200000            -4.849742             0.041793
C           -11.900000            -6.062178             0.049063
C           -11.200000            -7.274613             0.015930
C            -9.800000            -7.274613             0.075735
H           -11.750000            -3.897114             0.052081
H           -13.000000            -6.062178             0.038784
H           -11.750000            -8.227241             0.087165
C            -9.100000            -8.487049             0.091848
C            -7.700000            -8.487049             0.084838
H            -9.650000            -9.439677             0.028999
C            -7.000000            -9.699485             0.085507
C            -5.600000            -9.699485             0.031567
H            -7.550000           -10.652112             0.042603
C            -4.900000           -10.911920             0.083168
C            -3.500000           -10.911920             0.058377
H            -5.450000           -11.864548             0.099929
C            -2.800000           -12.124356             0.014624
C            -1.400000           -12.124356             0.095525
H            -3.350000           -13.076984             0.019700
C            -0.700000           -13.336791             0.022968
C             0.700000           -13.336791             0.089049
H            -1.250000           -14.289419             0.069486
H             1.250000           -14.289419             0.045041
