122
isomero_37_38
C             0.700000             1.212436             0.038450
C            -0.700000             1.212436             0.058758
C            -1.400000             0.000000             0.093329
C            -0.700000            -1.212436             0.009297
C             0.700000            -1.212436             0.082861
C             1.400000            -0.000000             0.011620
H             1.250000             2.165064             0.096063
H            -1.250000             2.165064             0.043124
C             2.800000             0.000000             0.075181
C             1.400000            -2.424871             0.032644
C             2.800000            -2.424871             0.034098
C             3.500000            -1.212436             0.035204
H             3.350000             0.952628             0.055648
C             4.900000            -1.212436             0.000389
C             3.500000            -3.637307             0.099601
C             4.900000            -3.637307             0.010290
C             5.600000            -2.424871             0.033494
H             5.450000            -0.259808             0.089102
C             7.000000            -2.424871             0.084420
C             5.600000            -4.849742             0.098283
C             7.000000            -4.849742             0.067136
C             7.700000            -3.637307             0.076106
H             7.550000            -1.472243             0.098388
C             9.100000            -3.637307             0.035208
C             7.700000            -6.062178             0.080089
C             9.100000            -6.062178             0.038342
C             9.800000            -4.849742             0.036166
H             9.650000            -2.684679             0.094443
C            11.200000            -4.849742             0.032376
C             9.800000            -7.274613             0.062516
C            11.200000            -7.274613             0.040564
C            11.900000            -6.062178             0.077814
H            11.750000            -3.897114             0.028366
H            11.750000            -8.227241             0.027567
H            13.000000            -6.062178             0.075652
C            -2.800000             0.000000             0.049293
C            -3.500000            -1.212436             0.020930
C            -2.800000            -2.424871             0.085795
C            -1.400000            -2.424871             0.041495
H            -3.350000             0.952628             0.036420
C            -0.700000            -3.637307             0.062950
C             0.700000            -3.637307             0.056209
C             1.400000            -4.849742             0.067813
C             2.800000            -4.849742             0.057117
C             3.500000            -6.062178             0.049512
C             4.900000            -6.062178             0.029220
C             5.600000            -7.274613             0.075572
C             7.000000            -7.274613             0.066598
C             7.700000            -8.487049             0.040605
C             9.100000            -8.487049             0.095918
H             9.650000            -9.439677             0.070932
C            -4.900000            -1.212436             0.032984
C            -5.600000            -2.424871             0.077871
C            -4.900000            -3.637307             0.099352
C            -3.500000            -3.637307             0.051275
H            -5.450000            -0.259808             0.076513
N            -2.800000            -4.849742             0.020798
B            -1.400000            -4.849742             0.040546
C            -0.700000            -6.062178             0.092366
C             0.700000            -6.062178             0.082819
C             1.400000            -7.274613             0.000127
C             2.800000            -7.274613             0.039299
C             3.500000            -8.487049             0.080529
C             4.900000            -8.487049             0.078430
C             5.600000            -9.699485             0.015503
C             7.000000            -9.699485             0.087443
H             7.550000           -10.652112             0.026522
C            -7.000000            -2.424871             0.038866
C            -7.700000            -3.637307             0.065179
C            -7.000000            -4.849742             0.095738
C            -5.600000            -4.849742             0.083822
H            -7.550000            -1.472243             0.009918
C            -4.900000            -6.062178             0.060100
C            -3.500000            -6.062178             0.014497
C            -2.800000            -7.274613             0.003842
C            -1.400000            -7.274613             0.031605
C            -0.700000            -8.487049             0.068324
C             0.700000            -8.487049             0.035059
C             1.400000            -9.699485             0.066703
C             2.800000            -9.699485             0.025030
C             3.500000           -10.911920             0.089324
C             4.900000           -10.911920             0.094707
H             5.450000           -11.864548             0.037230
C            -9.100000            -3.637307             0.068556
C            -9.800000            -4.849742             0.099128
C            -9.100000            -6.062178             0.026978
C            -7.700000            -6.062178             0.012004
H            -9.650000            -2.684679             0.068803
C            -7.000000            -7.274613             0.053189
C            -5.600000            -7.274613             0.023256
C            -4.900000            -8.487049             0.003838
C            -3.500000            -8.487049             0.075101
C            -2.800000            -9.699485             0.084139
C            -1.400000            -9.699485             0.064025
C            -0.700000           -10.911920             0.054966
C             0.700000           -10.911920             0.023473
C             1.400000           -12.124356             0.090008
C             2.800000           -12.124356             0.000204
H             3.350000           -13.076984             0.058050
C           -11.200000            -4.849742             0.030144
C           -11.900000            -6.062178             0.055583
C           -11.200000            -7.274613             0.077077
C            -9.800000            -7.274613             0.098226
H           -11.750000            -3.897114             0.051757
H           -13.000000            -6.062178             0.089609
H           -11.750000            -8.227241             0.084070
C            -9.100000            -8.487049             0.032148
C            -7.700000            -8.487049             0.001228
H            -9.650000            -9.439677             0.037358
C            -7.000000            -9.699485             0.033249
C            -5.600000            -9.699485             0.014351
H            -7.550000           -10.652112             0.077690
C            -4.900000           -10.911920             0.093341
C            -3.500000           -10.911920             0.048360
H            -5.450000           -11.864548             0.002297
C            -2.800000           -12.124356             0.034004
C            -1.400000           -12.124356             0.082661
H            -3.350000           -13.076984             0.088459
C            -0.700000           -13.336791             0.032683
C             0.700000           -13.336791             0.044099
H            -1.250000           -14.289419             0.084108
H             1.250000           -14.289419             0.021435
