122
isomero_52_53
C             0.700000             1.212436             0.065837
C            -0.700000             1.212436             0.011319
C            -1.400000             0.000000             0.058651
C            -0.700000            -1.212436             0.068217
C             0.700000            -1.212436             0.004710
C             1.400000            -0.000000             0.074552
H             1.250000             2.165064             0.009747
H            -1.250000             2.165064             0.001025
C             2.800000             0.000000             0.056315
C             1.400000            -2.424871             0.009008
C             2.800000            -2.424871             0.094978
C             3.500000            -1.212436             0.025535
H             3.350000             0.952628             0.061735
C             4.900000            -1.212436             0.099821
C             3.500000            -3.637307             0.054365
C             4.900000            -3.637307             0.028791
C             5.600000            -2.424871             0.007486
H             5.450000            -0.259808             0.036901
C             7.000000            -2.424871             0.013959
C             5.600000            -4.849742             0.012800
C             7.000000            -4.849742             0.093854
C             7.700000            -3.637307             0.044575
H             7.550000            -1.472243             0.070116
C             9.100000            -3.637307             0.028041
C             7.700000            -6.062178             0.082708
C             9.100000            -6.062178             0.088083
C             9.800000            -4.849742             0.085270
H             9.650000            -2.684679             0.060557
C            11.200000            -4.849742             0.007547
C             9.800000            -7.274613             0.000530
C            11.200000            -7.274613             0.024069
C            11.900000            -6.062178             0.082496
H            11.750000            -3.897114             0.085160
H            11.750000            -8.227241             0.023217
H            13.000000            -6.062178             0.051106
C            -2.800000             0.000000             0.073968
C            -3.500000            -1.212436             0.007888
C            -2.800000            -2.424871             0.045770
C            -1.400000            -2.424871             0.073073
H            -3.350000             0.952628             0.029432
C            -0.700000            -3.637307             0.024354
C             0.700000            -3.637307             0.029158
C             1.400000            -4.849742             0.003588
C             2.800000            -4.849742             0.030842
C             3.500000            -6.062178             0.022138
C             4.900000            -6.062178             0.099056
C             5.600000            -7.274613             0.013235
C             7.000000            -7.274613             0.079521
C             7.700000            -8.487049             0.068119
C             9.100000            -8.487049             0.031848
H             9.650000            -9.439677             0.091730
C            -4.900000            -1.212436             0.041372
C            -5.600000            -2.424871             0.093319
C            -4.900000            -3.637307             0.007434
C            -3.500000            -3.637307             0.038992
H            -5.450000            -0.259808             0.049184
C            -2.800000            -4.849742             0.045359
C            -1.400000            -4.849742             0.048958
C            -0.700000            -6.062178             0.060407
C             0.700000            -6.062178             0.080374
C             1.400000            -7.274613             0.004391
C             2.800000            -7.274613             0.021332
C             3.500000            -8.487049             0.049431
C             4.900000            -8.487049             0.033917
C             5.600000            -9.699485             0.056074
C             7.000000            -9.699485             0.015191
H             7.550000           -10.652112             0.035195
C            -7.000000            -2.424871             0.046833
C            -7.700000            -3.637307             0.035740
C            -7.000000            -4.849742             0.044171
C            -5.600000            -4.849742             0.067059
H            -7.550000            -1.472243             0.011359
C            -4.900000            -6.062178             0.006674
C            -3.500000            -6.062178             0.069520
C            -2.800000            -7.274613             0.089314
C            -1.400000            -7.274613             0.063484
C            -0.700000            -8.487049             0.037178
C             0.700000            -8.487049             0.048540
C             1.400000            -9.699485             0.053383
C             2.800000            -9.699485             0.054417
C             3.500000           -10.911920             0.093319
C             4.900000           -10.911920             0.004682
H             5.450000           -11.864548             0.076021
C            -9.100000            -3.637307             0.048629
C            -9.800000            -4.849742             0.032334
N            -9.100000            -6.062178             0.036364
B            -7.700000            -6.062178             0.072388
H            -9.650000            -2.684679             0.099484
C            -7.000000            -7.274613             0.088195
C            -5.600000            -7.274613             0.061728
C            -4.900000            -8.487049             0.050819
C            -3.500000            -8.487049             0.008944
C            -2.800000            -9.699485             0.079233
C            -1.400000            -9.699485             0.046575
C            -0.700000           -10.911920             0.039322
C             0.700000           -10.911920             0.068206
C             1.400000           -12.124356             0.055726
C             2.800000           -12.124356             0.073764
H             3.350000           -13.076984             0.091343
C           -11.200000            -4.849742             0.051724
C           -11.900000            -6.062178             0.083204
C           -11.200000            -7.274613             0.091841
C            -9.800000            -7.274613             0.045911
H           -11.750000            -3.897114             0.034231
H           -13.000000            -6.062178             0.045422
H           -11.750000            -8.227241             0.020380
C            -9.100000            -8.487049             0.049554
C            -7.700000            -8.487049             0.087371
H            -9.650000            -9.439677             0.042564
C            -7.000000            -9.699485             0.029233
C            -5.600000            -9.699485             0.026722
H            -7.550000           -10.652112             0.016725
C            -4.900000           -10.911920             0.041890
C            -3.500000           -10.911920             0.054826
H            -5.450000           -11.864548             0.026529
C            -2.800000           -12.124356             0.033803
C            -1.400000           -12.124356             0.038885
H            -3.350000           -13.076984             0.004801
C            -0.700000           -13.336791             0.032944
C             0.700000           -13.336791             0.006886
H            -1.250000           -14.289419             0.095167
H             1.250000           -14.289419             0.006168
