122
isomero_10_5
C             0.700000             1.212436             0.069779
C            -0.700000             1.212436             0.084595
N            -1.400000             0.000000             0.028224
B            -0.700000            -1.212436             0.052323
C             0.700000            -1.212436             0.007907
C             1.400000            -0.000000             0.031532
H             1.250000             2.165064             0.038574
H            -1.250000             2.165064             0.032270
C             2.800000             0.000000             0.071999
C             1.400000            -2.424871             0.033939
C             2.800000            -2.424871             0.065192
C             3.500000            -1.212436             0.027206
H             3.350000             0.952628             0.027031
C             4.900000            -1.212436             0.014566
C             3.500000            -3.637307             0.050090
C             4.900000            -3.637307             0.076293
C             5.600000            -2.424871             0.028021
H             5.450000            -0.259808             0.032979
C             7.000000            -2.424871             0.083826
C             5.600000            -4.849742             0.040263
C             7.000000            -4.849742             0.074439
C             7.700000            -3.637307             0.057590
H             7.550000            -1.472243             0.063016
C             9.100000            -3.637307             0.037668
C             7.700000            -6.062178             0.031664
C             9.100000            -6.062178             0.016389
C             9.800000            -4.849742             0.054417
H             9.650000            -2.684679             0.002335
C            11.200000            -4.849742             0.047225
C             9.800000            -7.274613             0.060397
C            11.200000            -7.274613             0.064826
C            11.900000            -6.062178             0.097896
H            11.750000            -3.897114             0.028946
H            11.750000            -8.227241             0.010216
H            13.000000            -6.062178             0.085763
C            -2.800000             0.000000             0.031012
C            -3.500000            -1.212436             0.083280
C            -2.800000            -2.424871             0.034420
C            -1.400000            -2.424871             0.013272
H            -3.350000             0.952628             0.052345
C            -0.700000            -3.637307             0.066988
C             0.700000            -3.637307             0.027083
C             1.400000            -4.849742             0.038356
C             2.800000            -4.849742             0.026140
C             3.500000            -6.062178             0.061576
C             4.900000            -6.062178             0.001574
C             5.600000            -7.274613             0.010086
C             7.000000            -7.274613             0.095962
C             7.700000            -8.487049             0.052017
C             9.100000            -8.487049             0.032095
H             9.650000            -9.439677             0.040963
C            -4.900000            -1.212436             0.008108
C            -5.600000            -2.424871             0.090576
C            -4.900000            -3.637307             0.088100
C            -3.500000            -3.637307             0.055464
H            -5.450000            -0.259808             0.030635
C            -2.800000            -4.849742             0.090424
C            -1.400000            -4.849742             0.022981
C            -0.700000            -6.062178             0.061158
C             0.700000            -6.062178             0.015079
C             1.400000            -7.274613             0.031919
C             2.800000            -7.274613             0.030547
C             3.500000            -8.487049             0.078301
C             4.900000            -8.487049             0.056551
C             5.600000            -9.699485             0.043400
C             7.000000            -9.699485             0.020457
H             7.550000           -10.652112             0.018913
C            -7.000000            -2.424871             0.069346
C            -7.700000            -3.637307             0.021085
C            -7.000000            -4.849742             0.009382
C            -5.600000            -4.849742             0.023090
H            -7.550000            -1.472243             0.098668
C            -4.900000            -6.062178             0.074276
C            -3.500000            -6.062178             0.073345
C            -2.800000            -7.274613             0.035986
C            -1.400000            -7.274613             0.039220
C            -0.700000            -8.487049             0.032444
C             0.700000            -8.487049             0.085802
C             1.400000            -9.699485             0.007836
C             2.800000            -9.699485             0.055440
C             3.500000           -10.911920             0.092005
C             4.900000           -10.911920             0.031608
H             5.450000           -11.864548             0.069016
C            -9.100000            -3.637307             0.016339
C            -9.800000            -4.849742             0.069874
C            -9.100000            -6.062178             0.069044
C            -7.700000            -6.062178             0.090565
H            -9.650000            -2.684679             0.077126
C            -7.000000            -7.274613             0.084653
C            -5.600000            -7.274613             0.008131
C            -4.900000            -8.487049             0.067401
C            -3.500000            -8.487049             0.024572
C            -2.800000            -9.699485             0.003948
C            -1.400000            -9.699485             0.061869
C            -0.700000           -10.911920             0.016141
C             0.700000           -10.911920             0.074414
C             1.400000           -12.124356             0.009313
C             2.800000           -12.124356             0.078121
H             3.350000           -13.076984             0.023114
C           -11.200000            -4.849742             0.043881
C           -11.900000            -6.062178             0.080345
C           -11.200000            -7.274613             0.005847
C            -9.800000            -7.274613             0.028470
H           -11.750000            -3.897114             0.049147
H           -13.000000            -6.062178             0.036848
H           -11.750000            -8.227241             0.043717
C            -9.100000            -8.487049             0.067951
C            -7.700000            -8.487049             0.064157
H            -9.650000            -9.439677             0.003709
C            -7.000000            -9.699485             0.008682
C            -5.600000            -9.699485             0.066225
H            -7.550000           -10.652112             0.043483
C            -4.900000           -10.911920             0.042519
C            -3.500000           -10.911920             0.095012
H            -5.450000           -11.864548             0.075711
C            -2.800000           -12.124356             0.011137
C            -1.400000           -12.124356             0.051735
H            -3.350000           -13.076984             0.069498
C            -0.700000           -13.336791             0.093762
C             0.700000           -13.336791             0.007576
H            -1.250000           -14.289419             0.077154
H             1.250000           -14.289419             0.005357
