122
isomero_28_39
C             0.700000             1.212436             0.020302
C            -0.700000             1.212436             0.093905
C            -1.400000             0.000000             0.073160
C            -0.700000            -1.212436             0.043601
C             0.700000            -1.212436             0.093629
C             1.400000            -0.000000             0.066515
H             1.250000             2.165064             0.020157
H            -1.250000             2.165064             0.026430
C             2.800000             0.000000             0.067876
C             1.400000            -2.424871             0.083353
C             2.800000            -2.424871             0.027024
C             3.500000            -1.212436             0.029662
H             3.350000             0.952628             0.004325
C             4.900000            -1.212436             0.048806
C             3.500000            -3.637307             0.082210
C             4.900000            -3.637307             0.082272
C             5.600000            -2.424871             0.060281
H             5.450000            -0.259808             0.030321
C             7.000000            -2.424871             0.084283
C             5.600000            -4.849742             0.040822
C             7.000000            -4.849742             0.091218
C             7.700000            -3.637307             0.097094
H             7.550000            -1.472243             0.017916
C             9.100000            -3.637307             0.096892
C             7.700000            -6.062178             0.087123
C             9.100000            -6.062178             0.024239
C             9.800000            -4.849742             0.008370
H             9.650000            -2.684679             0.065140
C            11.200000            -4.849742             0.047734
C             9.800000            -7.274613             0.012129
C            11.200000            -7.274613             0.013930
C            11.900000            -6.062178             0.068135
H            11.750000            -3.897114             0.033063
H            11.750000            -8.227241             0.012334
H            13.000000            -6.062178             0.072203
C            -2.800000             0.000000             0.001441
C            -3.500000            -1.212436             0.099276
C            -2.800000            -2.424871             0.015684
C            -1.400000            -2.424871             0.085578
H            -3.350000             0.952628             0.077016
C            -0.700000            -3.637307             0.051451
C             0.700000            -3.637307             0.038451
C             1.400000            -4.849742             0.002231
C             2.800000            -4.849742             0.077102
C             3.500000            -6.062178             0.021162
C             4.900000            -6.062178             0.087720
C             5.600000            -7.274613             0.016121
C             7.000000            -7.274613             0.089794
C             7.700000            -8.487049             0.016144
C             9.100000            -8.487049             0.048691
H             9.650000            -9.439677             0.064880
C            -4.900000            -1.212436             0.036002
C            -5.600000            -2.424871             0.064672
B            -4.900000            -3.637307             0.092137
C            -3.500000            -3.637307             0.098538
H            -5.450000            -0.259808             0.037170
C            -2.800000            -4.849742             0.085884
C            -1.400000            -4.849742             0.016144
C            -0.700000            -6.062178             0.003642
C             0.700000            -6.062178             0.059068
C             1.400000            -7.274613             0.082023
C             2.800000            -7.274613             0.024787
C             3.500000            -8.487049             0.049348
C             4.900000            -8.487049             0.003362
C             5.600000            -9.699485             0.091837
C             7.000000            -9.699485             0.086097
H             7.550000           -10.652112             0.068446
C            -7.000000            -2.424871             0.057021
C            -7.700000            -3.637307             0.021554
C            -7.000000            -4.849742             0.044894
N            -5.600000            -4.849742             0.043255
H            -7.550000            -1.472243             0.045372
C            -4.900000            -6.062178             0.089440
C            -3.500000            -6.062178             0.090015
C            -2.800000            -7.274613             0.087396
C            -1.400000            -7.274613             0.040821
C            -0.700000            -8.487049             0.013358
C             0.700000            -8.487049             0.024838
C             1.400000            -9.699485             0.026708
C             2.800000            -9.699485             0.027326
C             3.500000           -10.911920             0.053036
C             4.900000           -10.911920             0.039248
H             5.450000           -11.864548             0.012972
C            -9.100000            -3.637307             0.046781
C            -9.800000            -4.849742             0.015197
C            -9.100000            -6.062178             0.030353
C            -7.700000            -6.062178             0.078584
H            -9.650000            -2.684679             0.045838
C            -7.000000            -7.274613             0.041141
C            -5.600000            -7.274613             0.040245
C            -4.900000            -8.487049             0.004119
C            -3.500000            -8.487049             0.010838
C            -2.800000            -9.699485             0.019115
C            -1.400000            -9.699485             0.030512
C            -0.700000           -10.911920             0.023600
C             0.700000           -10.911920             0.049035
C             1.400000           -12.124356             0.051211
C             2.800000           -12.124356             0.020750
H             3.350000           -13.076984             0.057213
C           -11.200000            -4.849742             0.075459
C           -11.900000            -6.062178             0.016618
C           -11.200000            -7.274613             0.018935
C            -9.800000            -7.274613             0.081684
H           -11.750000            -3.897114             0.026440
H           -13.000000            -6.062178             0.006568
H           -11.750000            -8.227241             0.035511
C            -9.100000            -8.487049             0.050141
C            -7.700000            -8.487049             0.090668
H            -9.650000            -9.439677             0.021551
C            -7.000000            -9.699485             0.014025
C            -5.600000            -9.699485             0.087125
H            -7.550000           -10.652112             0.065697
C            -4.900000           -10.911920             0.062544
C            -3.500000           -10.911920             0.003082
H            -5.450000           -11.864548             0.002811
C            -2.800000           -12.124356             0.077103
C            -1.400000           -12.124356             0.045541
H            -3.350000           -13.076984             0.043913
C            -0.700000           -13.336791             0.035549
C             0.700000           -13.336791             0.024317
H            -1.250000           -14.289419             0.043127
H             1.250000           -14.289419             0.069069
