122
isomero_42_54
C             0.700000             1.212436             0.009753
C            -0.700000             1.212436             0.099509
C            -1.400000             0.000000             0.093561
C            -0.700000            -1.212436             0.027813
C             0.700000            -1.212436             0.080276
C             1.400000            -0.000000             0.075817
H             1.250000             2.165064             0.032150
H            -1.250000             2.165064             0.038588
C             2.800000             0.000000             0.028212
C             1.400000            -2.424871             0.026511
C             2.800000            -2.424871             0.075356
C             3.500000            -1.212436             0.043478
H             3.350000             0.952628             0.051900
C             4.900000            -1.212436             0.028443
C             3.500000            -3.637307             0.039377
C             4.900000            -3.637307             0.012405
C             5.600000            -2.424871             0.011598
H             5.450000            -0.259808             0.067829
C             7.000000            -2.424871             0.032061
C             5.600000            -4.849742             0.046124
C             7.000000            -4.849742             0.045955
C             7.700000            -3.637307             0.068255
H             7.550000            -1.472243             0.079880
C             9.100000            -3.637307             0.022398
C             7.700000            -6.062178             0.023904
C             9.100000            -6.062178             0.003079
C             9.800000            -4.849742             0.047250
H             9.650000            -2.684679             0.030411
C            11.200000            -4.849742             0.094110
C             9.800000            -7.274613             0.080242
C            11.200000            -7.274613             0.036766
C            11.900000            -6.062178             0.011721
H            11.750000            -3.897114             0.024426
H            11.750000            -8.227241             0.076708
H            13.000000            -6.062178             0.074441
C            -2.800000             0.000000             0.051793
C            -3.500000            -1.212436             0.042443
C            -2.800000            -2.424871             0.072257
C            -1.400000            -2.424871             0.021679
H            -3.350000             0.952628             0.020827
C            -0.700000            -3.637307             0.068552
C             0.700000            -3.637307             0.097373
C             1.400000            -4.849742             0.044028
C             2.800000            -4.849742             0.082008
C             3.500000            -6.062178             0.052584
C             4.900000            -6.062178             0.064374
C             5.600000            -7.274613             0.056334
C             7.000000            -7.274613             0.046780
C             7.700000            -8.487049             0.019433
C             9.100000            -8.487049             0.077584
H             9.650000            -9.439677             0.064106
C            -4.900000            -1.212436             0.080956
C            -5.600000            -2.424871             0.036216
C            -4.900000            -3.637307             0.030771
C            -3.500000            -3.637307             0.069154
H            -5.450000            -0.259808             0.049188
C            -2.800000            -4.849742             0.073021
C            -1.400000            -4.849742             0.014349
C            -0.700000            -6.062178             0.028392
C             0.700000            -6.062178             0.006215
C             1.400000            -7.274613             0.061282
C             2.800000            -7.274613             0.021140
C             3.500000            -8.487049             0.014073
C             4.900000            -8.487049             0.022594
C             5.600000            -9.699485             0.019264
C             7.000000            -9.699485             0.076001
H             7.550000           -10.652112             0.096303
C            -7.000000            -2.424871             0.019939
C            -7.700000            -3.637307             0.052983
C            -7.000000            -4.849742             0.001969
C            -5.600000            -4.849742             0.043453
H            -7.550000            -1.472243             0.061057
C            -4.900000            -6.062178             0.021645
C            -3.500000            -6.062178             0.087200
C            -2.800000            -7.274613             0.088679
C            -1.400000            -7.274613             0.041630
C            -0.700000            -8.487049             0.079820
C             0.700000            -8.487049             0.028553
C             1.400000            -9.699485             0.094871
C             2.800000            -9.699485             0.013866
C             3.500000           -10.911920             0.032684
C             4.900000           -10.911920             0.026906
H             5.450000           -11.864548             0.062245
C            -9.100000            -3.637307             0.078119
C            -9.800000            -4.849742             0.013118
C            -9.100000            -6.062178             0.098502
C            -7.700000            -6.062178             0.062448
H            -9.650000            -2.684679             0.058311
C            -7.000000            -7.274613             0.009915
C            -5.600000            -7.274613             0.026524
C            -4.900000            -8.487049             0.049610
C            -3.500000            -8.487049             0.050741
C            -2.800000            -9.699485             0.038901
C            -1.400000            -9.699485             0.084301
C            -0.700000           -10.911920             0.036455
C             0.700000           -10.911920             0.050947
C             1.400000           -12.124356             0.067841
C             2.800000           -12.124356             0.030346
H             3.350000           -13.076984             0.086710
B           -11.200000            -4.849742             0.055810
N           -11.900000            -6.062178             0.076885
C           -11.200000            -7.274613             0.062606
C            -9.800000            -7.274613             0.062577
H           -11.750000            -3.897114             0.000628
H           -13.000000            -6.062178             0.001289
H           -11.750000            -8.227241             0.061240
C            -9.100000            -8.487049             0.005851
C            -7.700000            -8.487049             0.024188
H            -9.650000            -9.439677             0.011101
C            -7.000000            -9.699485             0.002784
C            -5.600000            -9.699485             0.022055
H            -7.550000           -10.652112             0.032895
C            -4.900000           -10.911920             0.032326
C            -3.500000           -10.911920             0.073246
H            -5.450000           -11.864548             0.029650
C            -2.800000           -12.124356             0.099346
C            -1.400000           -12.124356             0.038676
H            -3.350000           -13.076984             0.076161
C            -0.700000           -13.336791             0.086283
C             0.700000           -13.336791             0.059063
H            -1.250000           -14.289419             0.030178
H             1.250000           -14.289419             0.036392
