122
isomero_17_26
C             0.700000             1.212436             0.038176
C            -0.700000             1.212436             0.005681
C            -1.400000             0.000000             0.006752
C            -0.700000            -1.212436             0.046821
C             0.700000            -1.212436             0.075913
C             1.400000            -0.000000             0.010681
H             1.250000             2.165064             0.073219
H            -1.250000             2.165064             0.054416
C             2.800000             0.000000             0.049072
C             1.400000            -2.424871             0.012406
C             2.800000            -2.424871             0.062077
C             3.500000            -1.212436             0.083802
H             3.350000             0.952628             0.041566
C             4.900000            -1.212436             0.063150
C             3.500000            -3.637307             0.055319
C             4.900000            -3.637307             0.054226
C             5.600000            -2.424871             0.059664
H             5.450000            -0.259808             0.018741
C             7.000000            -2.424871             0.016920
C             5.600000            -4.849742             0.014307
C             7.000000            -4.849742             0.023713
C             7.700000            -3.637307             0.048422
H             7.550000            -1.472243             0.052852
C             9.100000            -3.637307             0.062586
C             7.700000            -6.062178             0.006956
C             9.100000            -6.062178             0.041674
C             9.800000            -4.849742             0.096118
H             9.650000            -2.684679             0.065358
C            11.200000            -4.849742             0.096800
C             9.800000            -7.274613             0.036169
C            11.200000            -7.274613             0.008397
C            11.900000            -6.062178             0.062071
H            11.750000            -3.897114             0.039728
H            11.750000            -8.227241             0.039865
H            13.000000            -6.062178             0.080964
C            -2.800000             0.000000             0.044065
C            -3.500000            -1.212436             0.005478
C            -2.800000            -2.424871             0.097751
B            -1.400000            -2.424871             0.054277
H            -3.350000             0.952628             0.007008
N            -0.700000            -3.637307             0.056782
C             0.700000            -3.637307             0.042539
C             1.400000            -4.849742             0.077779
C             2.800000            -4.849742             0.068588
C             3.500000            -6.062178             0.010136
C             4.900000            -6.062178             0.010848
C             5.600000            -7.274613             0.088421
C             7.000000            -7.274613             0.004754
C             7.700000            -8.487049             0.015923
C             9.100000            -8.487049             0.022084
H             9.650000            -9.439677             0.052567
C            -4.900000            -1.212436             0.018851
C            -5.600000            -2.424871             0.096440
C            -4.900000            -3.637307             0.042406
C            -3.500000            -3.637307             0.064763
H            -5.450000            -0.259808             0.025235
C            -2.800000            -4.849742             0.056814
C            -1.400000            -4.849742             0.061804
C            -0.700000            -6.062178             0.080544
C             0.700000            -6.062178             0.083439
C             1.400000            -7.274613             0.031737
C             2.800000            -7.274613             0.097820
C             3.500000            -8.487049             0.059371
C             4.900000            -8.487049             0.035905
C             5.600000            -9.699485             0.092004
C             7.000000            -9.699485             0.069506
H             7.550000           -10.652112             0.073628
C            -7.000000            -2.424871             0.027247
C            -7.700000            -3.637307             0.065808
C            -7.000000            -4.849742             0.025170
C            -5.600000            -4.849742             0.035936
H            -7.550000            -1.472243             0.091985
C            -4.900000            -6.062178             0.008730
C            -3.500000            -6.062178             0.005278
C            -2.800000            -7.274613             0.093943
C            -1.400000            -7.274613             0.064132
C            -0.700000            -8.487049             0.089063
C             0.700000            -8.487049             0.021339
C             1.400000            -9.699485             0.014413
C             2.800000            -9.699485             0.023314
C             3.500000           -10.911920             0.088068
C             4.900000           -10.911920             0.065245
H             5.450000           -11.864548             0.097304
C            -9.100000            -3.637307             0.075227
C            -9.800000            -4.849742             0.076268
C            -9.100000            -6.062178             0.033951
C            -7.700000            -6.062178             0.028384
H            -9.650000            -2.684679             0.057016
C            -7.000000            -7.274613             0.061459
C            -5.600000            -7.274613             0.048367
C            -4.900000            -8.487049             0.058084
C            -3.500000            -8.487049             0.006991
C            -2.800000            -9.699485             0.020402
C            -1.400000            -9.699485             0.014018
C            -0.700000           -10.911920             0.092700
C             0.700000           -10.911920             0.055755
C             1.400000           -12.124356             0.053515
C             2.800000           -12.124356             0.020838
H             3.350000           -13.076984             0.092110
C           -11.200000            -4.849742             0.006320
C           -11.900000            -6.062178             0.092817
C           -11.200000            -7.274613             0.032518
C            -9.800000            -7.274613             0.090581
H           -11.750000            -3.897114             0.029079
H           -13.000000            -6.062178             0.009139
H           -11.750000            -8.227241             0.065469
C            -9.100000            -8.487049             0.011788
C            -7.700000            -8.487049             0.094950
H            -9.650000            -9.439677             0.033457
C            -7.000000            -9.699485             0.054116
C            -5.600000            -9.699485             0.033242
H            -7.550000           -10.652112             0.097392
C            -4.900000           -10.911920             0.071609
C            -3.500000           -10.911920             0.047598
H            -5.450000           -11.864548             0.065879
C            -2.800000           -12.124356             0.094847
C            -1.400000           -12.124356             0.091219
H            -3.350000           -13.076984             0.045835
C            -0.700000           -13.336791             0.067036
C             0.700000           -13.336791             0.002627
H            -1.250000           -14.289419             0.075232
H             1.250000           -14.289419             0.048916
