122
isomero_37_49
C             0.700000             1.212436             0.092229
C            -0.700000             1.212436             0.011045
C            -1.400000             0.000000             0.063234
C            -0.700000            -1.212436             0.065554
C             0.700000            -1.212436             0.053562
C             1.400000            -0.000000             0.073092
H             1.250000             2.165064             0.071512
H            -1.250000             2.165064             0.043786
C             2.800000             0.000000             0.090091
C             1.400000            -2.424871             0.058043
C             2.800000            -2.424871             0.096386
C             3.500000            -1.212436             0.011757
H             3.350000             0.952628             0.084041
C             4.900000            -1.212436             0.097391
C             3.500000            -3.637307             0.098045
C             4.900000            -3.637307             0.099793
C             5.600000            -2.424871             0.016812
H             5.450000            -0.259808             0.014085
C             7.000000            -2.424871             0.043826
C             5.600000            -4.849742             0.015291
C             7.000000            -4.849742             0.058851
C             7.700000            -3.637307             0.085146
H             7.550000            -1.472243             0.044456
C             9.100000            -3.637307             0.070793
C             7.700000            -6.062178             0.017415
C             9.100000            -6.062178             0.069549
C             9.800000            -4.849742             0.011099
H             9.650000            -2.684679             0.001575
C            11.200000            -4.849742             0.006420
C             9.800000            -7.274613             0.004218
C            11.200000            -7.274613             0.071260
C            11.900000            -6.062178             0.023123
H            11.750000            -3.897114             0.076397
H            11.750000            -8.227241             0.093330
H            13.000000            -6.062178             0.028907
C            -2.800000             0.000000             0.070011
C            -3.500000            -1.212436             0.080972
C            -2.800000            -2.424871             0.032691
C            -1.400000            -2.424871             0.091109
H            -3.350000             0.952628             0.020538
C            -0.700000            -3.637307             0.001247
C             0.700000            -3.637307             0.043170
C             1.400000            -4.849742             0.047127
C             2.800000            -4.849742             0.097235
C             3.500000            -6.062178             0.058313
C             4.900000            -6.062178             0.021964
C             5.600000            -7.274613             0.023817
C             7.000000            -7.274613             0.095503
C             7.700000            -8.487049             0.049133
C             9.100000            -8.487049             0.034092
H             9.650000            -9.439677             0.085485
C            -4.900000            -1.212436             0.073110
C            -5.600000            -2.424871             0.019558
C            -4.900000            -3.637307             0.090393
C            -3.500000            -3.637307             0.095007
H            -5.450000            -0.259808             0.034557
C            -2.800000            -4.849742             0.019339
B            -1.400000            -4.849742             0.023727
N            -0.700000            -6.062178             0.021972
C             0.700000            -6.062178             0.087039
C             1.400000            -7.274613             0.003567
C             2.800000            -7.274613             0.062774
C             3.500000            -8.487049             0.044955
C             4.900000            -8.487049             0.077968
C             5.600000            -9.699485             0.048662
C             7.000000            -9.699485             0.096649
H             7.550000           -10.652112             0.002700
C            -7.000000            -2.424871             0.093084
C            -7.700000            -3.637307             0.003417
C            -7.000000            -4.849742             0.070011
C            -5.600000            -4.849742             0.062300
H            -7.550000            -1.472243             0.048967
C            -4.900000            -6.062178             0.007875
C            -3.500000            -6.062178             0.017158
C            -2.800000            -7.274613             0.077529
C            -1.400000            -7.274613             0.015057
C            -0.700000            -8.487049             0.099846
C             0.700000            -8.487049             0.008077
C             1.400000            -9.699485             0.088249
C             2.800000            -9.699485             0.046068
C             3.500000           -10.911920             0.051648
C             4.900000           -10.911920             0.044353
H             5.450000           -11.864548             0.095662
C            -9.100000            -3.637307             0.061960
C            -9.800000            -4.849742             0.033570
C            -9.100000            -6.062178             0.044586
C            -7.700000            -6.062178             0.074525
H            -9.650000            -2.684679             0.055384
C            -7.000000            -7.274613             0.074380
C            -5.600000            -7.274613             0.063075
C            -4.900000            -8.487049             0.016443
C            -3.500000            -8.487049             0.060090
C            -2.800000            -9.699485             0.039218
C            -1.400000            -9.699485             0.059285
C            -0.700000           -10.911920             0.014143
C             0.700000           -10.911920             0.040984
C             1.400000           -12.124356             0.072577
C             2.800000           -12.124356             0.060883
H             3.350000           -13.076984             0.056325
C           -11.200000            -4.849742             0.000813
C           -11.900000            -6.062178             0.014015
C           -11.200000            -7.274613             0.070781
C            -9.800000            -7.274613             0.025698
H           -11.750000            -3.897114             0.072323
H           -13.000000            -6.062178             0.055942
H           -11.750000            -8.227241             0.033535
C            -9.100000            -8.487049             0.040292
C            -7.700000            -8.487049             0.081398
H            -9.650000            -9.439677             0.035446
C            -7.000000            -9.699485             0.045302
C            -5.600000            -9.699485             0.070696
H            -7.550000           -10.652112             0.096700
C            -4.900000           -10.911920             0.079118
C            -3.500000           -10.911920             0.045036
H            -5.450000           -11.864548             0.085229
C            -2.800000           -12.124356             0.036546
C            -1.400000           -12.124356             0.099902
H            -3.350000           -13.076984             0.008378
C            -0.700000           -13.336791             0.041171
C             0.700000           -13.336791             0.036845
H            -1.250000           -14.289419             0.038265
H             1.250000           -14.289419             0.056957
