122
isomero_5_2
C             0.700000             1.212436             0.081638
N            -0.700000             1.212436             0.026789
B            -1.400000             0.000000             0.027780
C            -0.700000            -1.212436             0.008052
C             0.700000            -1.212436             0.006428
C             1.400000            -0.000000             0.015410
H             1.250000             2.165064             0.013605
H            -1.250000             2.165064             0.068327
C             2.800000             0.000000             0.007515
C             1.400000            -2.424871             0.012696
C             2.800000            -2.424871             0.033311
C             3.500000            -1.212436             0.027074
H             3.350000             0.952628             0.008783
C             4.900000            -1.212436             0.043124
C             3.500000            -3.637307             0.070027
C             4.900000            -3.637307             0.076412
C             5.600000            -2.424871             0.040613
H             5.450000            -0.259808             0.042474
C             7.000000            -2.424871             0.086207
C             5.600000            -4.849742             0.016192
C             7.000000            -4.849742             0.097320
C             7.700000            -3.637307             0.073217
H             7.550000            -1.472243             0.067645
C             9.100000            -3.637307             0.089669
C             7.700000            -6.062178             0.020053
C             9.100000            -6.062178             0.025789
C             9.800000            -4.849742             0.073753
H             9.650000            -2.684679             0.093235
C            11.200000            -4.849742             0.055242
C             9.800000            -7.274613             0.064170
C            11.200000            -7.274613             0.098278
C            11.900000            -6.062178             0.083175
H            11.750000            -3.897114             0.007874
H            11.750000            -8.227241             0.018324
H            13.000000            -6.062178             0.000685
C            -2.800000             0.000000             0.066453
C            -3.500000            -1.212436             0.052715
C            -2.800000            -2.424871             0.039038
C            -1.400000            -2.424871             0.045971
H            -3.350000             0.952628             0.035587
C            -0.700000            -3.637307             0.055407
C             0.700000            -3.637307             0.022854
C             1.400000            -4.849742             0.043186
C             2.800000            -4.849742             0.048358
C             3.500000            -6.062178             0.012072
C             4.900000            -6.062178             0.063703
C             5.600000            -7.274613             0.093167
C             7.000000            -7.274613             0.004147
C             7.700000            -8.487049             0.043182
C             9.100000            -8.487049             0.030150
H             9.650000            -9.439677             0.065844
C            -4.900000            -1.212436             0.064971
C            -5.600000            -2.424871             0.095173
C            -4.900000            -3.637307             0.080657
C            -3.500000            -3.637307             0.021310
H            -5.450000            -0.259808             0.089351
C            -2.800000            -4.849742             0.029574
C            -1.400000            -4.849742             0.030393
C            -0.700000            -6.062178             0.002525
C             0.700000            -6.062178             0.009098
C             1.400000            -7.274613             0.015049
C             2.800000            -7.274613             0.087473
C             3.500000            -8.487049             0.082461
C             4.900000            -8.487049             0.080279
C             5.600000            -9.699485             0.004966
C             7.000000            -9.699485             0.054642
H             7.550000           -10.652112             0.048286
C            -7.000000            -2.424871             0.049170
C            -7.700000            -3.637307             0.042942
C            -7.000000            -4.849742             0.094744
C            -5.600000            -4.849742             0.015312
H            -7.550000            -1.472243             0.037833
C            -4.900000            -6.062178             0.043022
C            -3.500000            -6.062178             0.050038
C            -2.800000            -7.274613             0.035887
C            -1.400000            -7.274613             0.072132
C            -0.700000            -8.487049             0.056371
C             0.700000            -8.487049             0.028016
C             1.400000            -9.699485             0.000845
C             2.800000            -9.699485             0.004706
C             3.500000           -10.911920             0.035347
C             4.900000           -10.911920             0.028103
H             5.450000           -11.864548             0.056503
C            -9.100000            -3.637307             0.055112
C            -9.800000            -4.849742             0.030490
C            -9.100000            -6.062178             0.035828
C            -7.700000            -6.062178             0.093905
H            -9.650000            -2.684679             0.037147
C            -7.000000            -7.274613             0.010354
C            -5.600000            -7.274613             0.095414
C            -4.900000            -8.487049             0.099896
C            -3.500000            -8.487049             0.005609
C            -2.800000            -9.699485             0.043802
C            -1.400000            -9.699485             0.007650
C            -0.700000           -10.911920             0.096293
C             0.700000           -10.911920             0.098601
C             1.400000           -12.124356             0.076425
C             2.800000           -12.124356             0.052081
H             3.350000           -13.076984             0.062571
C           -11.200000            -4.849742             0.005201
C           -11.900000            -6.062178             0.068562
C           -11.200000            -7.274613             0.088999
C            -9.800000            -7.274613             0.036024
H           -11.750000            -3.897114             0.083419
H           -13.000000            -6.062178             0.033620
H           -11.750000            -8.227241             0.010571
C            -9.100000            -8.487049             0.063931
C            -7.700000            -8.487049             0.045399
H            -9.650000            -9.439677             0.018791
C            -7.000000            -9.699485             0.009431
C            -5.600000            -9.699485             0.096399
H            -7.550000           -10.652112             0.052749
C            -4.900000           -10.911920             0.066744
C            -3.500000           -10.911920             0.010842
H            -5.450000           -11.864548             0.077485
C            -2.800000           -12.124356             0.006254
C            -1.400000           -12.124356             0.094381
H            -3.350000           -13.076984             0.024063
C            -0.700000           -13.336791             0.094824
C             0.700000           -13.336791             0.035847
H            -1.250000           -14.289419             0.061895
H             1.250000           -14.289419             0.060189
