122
isomero_39_51
C             0.700000             1.212436             0.007589
C            -0.700000             1.212436             0.010829
C            -1.400000             0.000000             0.022806
C            -0.700000            -1.212436             0.013411
C             0.700000            -1.212436             0.033125
C             1.400000            -0.000000             0.016021
H             1.250000             2.165064             0.021828
H            -1.250000             2.165064             0.023561
C             2.800000             0.000000             0.028692
C             1.400000            -2.424871             0.071702
C             2.800000            -2.424871             0.037154
C             3.500000            -1.212436             0.088315
H             3.350000             0.952628             0.066334
C             4.900000            -1.212436             0.054387
C             3.500000            -3.637307             0.024522
C             4.900000            -3.637307             0.099494
C             5.600000            -2.424871             0.024210
H             5.450000            -0.259808             0.050754
C             7.000000            -2.424871             0.017296
C             5.600000            -4.849742             0.048359
C             7.000000            -4.849742             0.029636
C             7.700000            -3.637307             0.089036
H             7.550000            -1.472243             0.062696
C             9.100000            -3.637307             0.073453
C             7.700000            -6.062178             0.073468
C             9.100000            -6.062178             0.032024
C             9.800000            -4.849742             0.000165
H             9.650000            -2.684679             0.045115
C            11.200000            -4.849742             0.027428
C             9.800000            -7.274613             0.000390
C            11.200000            -7.274613             0.095742
C            11.900000            -6.062178             0.029108
H            11.750000            -3.897114             0.080102
H            11.750000            -8.227241             0.079696
H            13.000000            -6.062178             0.060415
C            -2.800000             0.000000             0.085208
C            -3.500000            -1.212436             0.023741
C            -2.800000            -2.424871             0.038217
C            -1.400000            -2.424871             0.042863
H            -3.350000             0.952628             0.088371
C            -0.700000            -3.637307             0.032829
C             0.700000            -3.637307             0.001238
C             1.400000            -4.849742             0.044934
C             2.800000            -4.849742             0.074991
C             3.500000            -6.062178             0.098150
C             4.900000            -6.062178             0.045903
C             5.600000            -7.274613             0.020745
C             7.000000            -7.274613             0.068343
C             7.700000            -8.487049             0.001335
C             9.100000            -8.487049             0.051799
H             9.650000            -9.439677             0.076577
C            -4.900000            -1.212436             0.049584
C            -5.600000            -2.424871             0.033401
C            -4.900000            -3.637307             0.006907
C            -3.500000            -3.637307             0.066834
H            -5.450000            -0.259808             0.045515
C            -2.800000            -4.849742             0.086819
C            -1.400000            -4.849742             0.063124
C            -0.700000            -6.062178             0.054260
C             0.700000            -6.062178             0.084799
C             1.400000            -7.274613             0.018910
C             2.800000            -7.274613             0.037701
C             3.500000            -8.487049             0.067316
C             4.900000            -8.487049             0.061750
C             5.600000            -9.699485             0.043246
C             7.000000            -9.699485             0.015775
H             7.550000           -10.652112             0.074801
C            -7.000000            -2.424871             0.098133
C            -7.700000            -3.637307             0.061328
C            -7.000000            -4.849742             0.083737
B            -5.600000            -4.849742             0.025192
H            -7.550000            -1.472243             0.034568
N            -4.900000            -6.062178             0.036379
C            -3.500000            -6.062178             0.086539
C            -2.800000            -7.274613             0.052426
C            -1.400000            -7.274613             0.088610
C            -0.700000            -8.487049             0.059916
C             0.700000            -8.487049             0.064604
C             1.400000            -9.699485             0.060228
C             2.800000            -9.699485             0.019547
C             3.500000           -10.911920             0.044786
C             4.900000           -10.911920             0.083473
H             5.450000           -11.864548             0.006773
C            -9.100000            -3.637307             0.032321
C            -9.800000            -4.849742             0.017314
C            -9.100000            -6.062178             0.011379
C            -7.700000            -6.062178             0.033606
H            -9.650000            -2.684679             0.019147
C            -7.000000            -7.274613             0.021467
C            -5.600000            -7.274613             0.086345
C            -4.900000            -8.487049             0.052818
C            -3.500000            -8.487049             0.004446
C            -2.800000            -9.699485             0.019687
C            -1.400000            -9.699485             0.096092
C            -0.700000           -10.911920             0.016667
C             0.700000           -10.911920             0.018902
C             1.400000           -12.124356             0.082290
C             2.800000           -12.124356             0.074085
H             3.350000           -13.076984             0.002959
C           -11.200000            -4.849742             0.029457
C           -11.900000            -6.062178             0.037500
C           -11.200000            -7.274613             0.063565
C            -9.800000            -7.274613             0.026283
H           -11.750000            -3.897114             0.044675
H           -13.000000            -6.062178             0.069816
H           -11.750000            -8.227241             0.073955
C            -9.100000            -8.487049             0.001017
C            -7.700000            -8.487049             0.001113
H            -9.650000            -9.439677             0.000064
C            -7.000000            -9.699485             0.060033
C            -5.600000            -9.699485             0.043201
H            -7.550000           -10.652112             0.028674
C            -4.900000           -10.911920             0.064051
C            -3.500000           -10.911920             0.056585
H            -5.450000           -11.864548             0.010010
C            -2.800000           -12.124356             0.026337
C            -1.400000           -12.124356             0.055886
H            -3.350000           -13.076984             0.020253
C            -0.700000           -13.336791             0.006831
C             0.700000           -13.336791             0.066311
H            -1.250000           -14.289419             0.018777
H             1.250000           -14.289419             0.014677
