122
isomero_27_18
C             0.700000             1.212436             0.067199
C            -0.700000             1.212436             0.016827
C            -1.400000             0.000000             0.067131
C            -0.700000            -1.212436             0.032676
C             0.700000            -1.212436             0.071763
C             1.400000            -0.000000             0.066187
H             1.250000             2.165064             0.090841
H            -1.250000             2.165064             0.072302
C             2.800000             0.000000             0.018766
C             1.400000            -2.424871             0.099478
C             2.800000            -2.424871             0.077450
C             3.500000            -1.212436             0.011054
H             3.350000             0.952628             0.049210
C             4.900000            -1.212436             0.001056
C             3.500000            -3.637307             0.024890
C             4.900000            -3.637307             0.092347
C             5.600000            -2.424871             0.061465
H             5.450000            -0.259808             0.024323
C             7.000000            -2.424871             0.098933
C             5.600000            -4.849742             0.092741
C             7.000000            -4.849742             0.026602
C             7.700000            -3.637307             0.062482
H             7.550000            -1.472243             0.047699
C             9.100000            -3.637307             0.003401
C             7.700000            -6.062178             0.009727
C             9.100000            -6.062178             0.098564
C             9.800000            -4.849742             0.019762
H             9.650000            -2.684679             0.049800
C            11.200000            -4.849742             0.008606
C             9.800000            -7.274613             0.016709
C            11.200000            -7.274613             0.012737
C            11.900000            -6.062178             0.002432
H            11.750000            -3.897114             0.019305
H            11.750000            -8.227241             0.012542
H            13.000000            -6.062178             0.066437
C            -2.800000             0.000000             0.004521
C            -3.500000            -1.212436             0.049895
N            -2.800000            -2.424871             0.015091
C            -1.400000            -2.424871             0.036091
H            -3.350000             0.952628             0.069358
C            -0.700000            -3.637307             0.061411
C             0.700000            -3.637307             0.044229
C             1.400000            -4.849742             0.034514
C             2.800000            -4.849742             0.094536
C             3.500000            -6.062178             0.038297
C             4.900000            -6.062178             0.004130
C             5.600000            -7.274613             0.005305
C             7.000000            -7.274613             0.041903
C             7.700000            -8.487049             0.077975
C             9.100000            -8.487049             0.039331
H             9.650000            -9.439677             0.078281
C            -4.900000            -1.212436             0.065087
C            -5.600000            -2.424871             0.096134
C            -4.900000            -3.637307             0.024383
B            -3.500000            -3.637307             0.078550
H            -5.450000            -0.259808             0.016063
C            -2.800000            -4.849742             0.027004
C            -1.400000            -4.849742             0.015764
C            -0.700000            -6.062178             0.092298
C             0.700000            -6.062178             0.094761
C             1.400000            -7.274613             0.000972
C             2.800000            -7.274613             0.033483
C             3.500000            -8.487049             0.019996
C             4.900000            -8.487049             0.020414
C             5.600000            -9.699485             0.014567
C             7.000000            -9.699485             0.027296
H             7.550000           -10.652112             0.089602
C            -7.000000            -2.424871             0.075636
C            -7.700000            -3.637307             0.068228
C            -7.000000            -4.849742             0.058262
C            -5.600000            -4.849742             0.053297
H            -7.550000            -1.472243             0.038152
C            -4.900000            -6.062178             0.093582
C            -3.500000            -6.062178             0.060541
C            -2.800000            -7.274613             0.088555
C            -1.400000            -7.274613             0.054191
C            -0.700000            -8.487049             0.073512
C             0.700000            -8.487049             0.064491
C             1.400000            -9.699485             0.059274
C             2.800000            -9.699485             0.083180
C             3.500000           -10.911920             0.066671
C             4.900000           -10.911920             0.053197
H             5.450000           -11.864548             0.009194
C            -9.100000            -3.637307             0.097285
C            -9.800000            -4.849742             0.078397
C            -9.100000            -6.062178             0.034826
C            -7.700000            -6.062178             0.069030
H            -9.650000            -2.684679             0.062095
C            -7.000000            -7.274613             0.038135
C            -5.600000            -7.274613             0.085849
C            -4.900000            -8.487049             0.092677
C            -3.500000            -8.487049             0.030019
C            -2.800000            -9.699485             0.078359
C            -1.400000            -9.699485             0.024945
C            -0.700000           -10.911920             0.066487
C             0.700000           -10.911920             0.076639
C             1.400000           -12.124356             0.099479
C             2.800000           -12.124356             0.018958
H             3.350000           -13.076984             0.031563
C           -11.200000            -4.849742             0.044150
C           -11.900000            -6.062178             0.048076
C           -11.200000            -7.274613             0.072751
C            -9.800000            -7.274613             0.004316
H           -11.750000            -3.897114             0.040317
H           -13.000000            -6.062178             0.033345
H           -11.750000            -8.227241             0.001206
C            -9.100000            -8.487049             0.082583
C            -7.700000            -8.487049             0.057823
H            -9.650000            -9.439677             0.076449
C            -7.000000            -9.699485             0.018904
C            -5.600000            -9.699485             0.078383
H            -7.550000           -10.652112             0.021449
C            -4.900000           -10.911920             0.047379
C            -3.500000           -10.911920             0.010786
H            -5.450000           -11.864548             0.010079
C            -2.800000           -12.124356             0.052352
C            -1.400000           -12.124356             0.096882
H            -3.350000           -13.076984             0.038219
C            -0.700000           -13.336791             0.076219
C             0.700000           -13.336791             0.006085
H            -1.250000           -14.289419             0.054362
H             1.250000           -14.289419             0.077694
