122
isomero_20_29
C             0.700000             1.212436             0.080055
C            -0.700000             1.212436             0.078800
C            -1.400000             0.000000             0.080107
C            -0.700000            -1.212436             0.009798
C             0.700000            -1.212436             0.011916
C             1.400000            -0.000000             0.023473
H             1.250000             2.165064             0.056956
H            -1.250000             2.165064             0.081204
C             2.800000             0.000000             0.076799
C             1.400000            -2.424871             0.093996
C             2.800000            -2.424871             0.001226
C             3.500000            -1.212436             0.075030
H             3.350000             0.952628             0.058626
C             4.900000            -1.212436             0.045160
C             3.500000            -3.637307             0.016886
C             4.900000            -3.637307             0.045357
C             5.600000            -2.424871             0.061236
H             5.450000            -0.259808             0.007754
C             7.000000            -2.424871             0.097328
C             5.600000            -4.849742             0.089697
C             7.000000            -4.849742             0.038845
C             7.700000            -3.637307             0.011047
H             7.550000            -1.472243             0.003969
C             9.100000            -3.637307             0.040693
C             7.700000            -6.062178             0.087140
C             9.100000            -6.062178             0.042622
C             9.800000            -4.849742             0.036167
H             9.650000            -2.684679             0.077310
C            11.200000            -4.849742             0.011977
C             9.800000            -7.274613             0.082673
C            11.200000            -7.274613             0.061139
C            11.900000            -6.062178             0.020598
H            11.750000            -3.897114             0.091309
H            11.750000            -8.227241             0.095433
H            13.000000            -6.062178             0.008212
C            -2.800000             0.000000             0.072494
C            -3.500000            -1.212436             0.067235
C            -2.800000            -2.424871             0.052865
C            -1.400000            -2.424871             0.060992
H            -3.350000             0.952628             0.096490
C            -0.700000            -3.637307             0.014030
C             0.700000            -3.637307             0.010738
C             1.400000            -4.849742             0.077401
C             2.800000            -4.849742             0.074102
C             3.500000            -6.062178             0.024372
C             4.900000            -6.062178             0.083677
C             5.600000            -7.274613             0.097660
C             7.000000            -7.274613             0.009899
C             7.700000            -8.487049             0.077399
C             9.100000            -8.487049             0.044747
H             9.650000            -9.439677             0.059644
C            -4.900000            -1.212436             0.006116
C            -5.600000            -2.424871             0.013879
C            -4.900000            -3.637307             0.071543
C            -3.500000            -3.637307             0.065596
H            -5.450000            -0.259808             0.001903
C            -2.800000            -4.849742             0.052251
C            -1.400000            -4.849742             0.093425
C            -0.700000            -6.062178             0.052019
C             0.700000            -6.062178             0.096232
C             1.400000            -7.274613             0.092570
C             2.800000            -7.274613             0.051943
C             3.500000            -8.487049             0.099482
C             4.900000            -8.487049             0.025666
C             5.600000            -9.699485             0.081134
C             7.000000            -9.699485             0.058608
H             7.550000           -10.652112             0.036933
B            -7.000000            -2.424871             0.026771
N            -7.700000            -3.637307             0.027955
C            -7.000000            -4.849742             0.030873
C            -5.600000            -4.849742             0.038844
H            -7.550000            -1.472243             0.029994
C            -4.900000            -6.062178             0.016778
C            -3.500000            -6.062178             0.096346
C            -2.800000            -7.274613             0.060220
C            -1.400000            -7.274613             0.021842
C            -0.700000            -8.487049             0.080226
C             0.700000            -8.487049             0.067765
C             1.400000            -9.699485             0.086246
C             2.800000            -9.699485             0.080670
C             3.500000           -10.911920             0.003140
C             4.900000           -10.911920             0.093701
H             5.450000           -11.864548             0.070487
C            -9.100000            -3.637307             0.046419
C            -9.800000            -4.849742             0.033799
C            -9.100000            -6.062178             0.033108
C            -7.700000            -6.062178             0.069201
H            -9.650000            -2.684679             0.032193
C            -7.000000            -7.274613             0.019265
C            -5.600000            -7.274613             0.072146
C            -4.900000            -8.487049             0.093462
C            -3.500000            -8.487049             0.060393
C            -2.800000            -9.699485             0.062766
C            -1.400000            -9.699485             0.087342
C            -0.700000           -10.911920             0.020459
C             0.700000           -10.911920             0.025008
C             1.400000           -12.124356             0.049141
C             2.800000           -12.124356             0.039503
H             3.350000           -13.076984             0.087011
C           -11.200000            -4.849742             0.005683
C           -11.900000            -6.062178             0.028692
C           -11.200000            -7.274613             0.083018
C            -9.800000            -7.274613             0.070289
H           -11.750000            -3.897114             0.024046
H           -13.000000            -6.062178             0.088324
H           -11.750000            -8.227241             0.059707
C            -9.100000            -8.487049             0.094656
C            -7.700000            -8.487049             0.080521
H            -9.650000            -9.439677             0.045082
C            -7.000000            -9.699485             0.002884
C            -5.600000            -9.699485             0.034627
H            -7.550000           -10.652112             0.069789
C            -4.900000           -10.911920             0.038779
C            -3.500000           -10.911920             0.011649
H            -5.450000           -11.864548             0.071288
C            -2.800000           -12.124356             0.039124
C            -1.400000           -12.124356             0.046631
H            -3.350000           -13.076984             0.043567
C            -0.700000           -13.336791             0.094982
C             0.700000           -13.336791             0.026068
H            -1.250000           -14.289419             0.042183
H             1.250000           -14.289419             0.030677
