122
isomero_26_25
C             0.700000             1.212436             0.024282
C            -0.700000             1.212436             0.073679
C            -1.400000             0.000000             0.037313
C            -0.700000            -1.212436             0.020146
C             0.700000            -1.212436             0.019380
C             1.400000            -0.000000             0.048666
H             1.250000             2.165064             0.076724
H            -1.250000             2.165064             0.074327
C             2.800000             0.000000             0.084154
C             1.400000            -2.424871             0.024236
C             2.800000            -2.424871             0.008036
C             3.500000            -1.212436             0.092420
H             3.350000             0.952628             0.067124
C             4.900000            -1.212436             0.008780
C             3.500000            -3.637307             0.006649
C             4.900000            -3.637307             0.029548
C             5.600000            -2.424871             0.055767
H             5.450000            -0.259808             0.095390
C             7.000000            -2.424871             0.003129
C             5.600000            -4.849742             0.041896
C             7.000000            -4.849742             0.019029
C             7.700000            -3.637307             0.018429
H             7.550000            -1.472243             0.012132
C             9.100000            -3.637307             0.010290
C             7.700000            -6.062178             0.044041
C             9.100000            -6.062178             0.006093
C             9.800000            -4.849742             0.039932
H             9.650000            -2.684679             0.070587
C            11.200000            -4.849742             0.052899
C             9.800000            -7.274613             0.026014
C            11.200000            -7.274613             0.038810
C            11.900000            -6.062178             0.065612
H            11.750000            -3.897114             0.017325
H            11.750000            -8.227241             0.009446
H            13.000000            -6.062178             0.012414
C            -2.800000             0.000000             0.034676
C            -3.500000            -1.212436             0.017205
C            -2.800000            -2.424871             0.083181
C            -1.400000            -2.424871             0.056089
H            -3.350000             0.952628             0.039604
B            -0.700000            -3.637307             0.002974
N             0.700000            -3.637307             0.044995
C             1.400000            -4.849742             0.097027
C             2.800000            -4.849742             0.089938
C             3.500000            -6.062178             0.096082
C             4.900000            -6.062178             0.030007
C             5.600000            -7.274613             0.099867
C             7.000000            -7.274613             0.018323
C             7.700000            -8.487049             0.002984
C             9.100000            -8.487049             0.073036
H             9.650000            -9.439677             0.015974
C            -4.900000            -1.212436             0.034670
C            -5.600000            -2.424871             0.042374
C            -4.900000            -3.637307             0.097057
C            -3.500000            -3.637307             0.069486
H            -5.450000            -0.259808             0.062590
C            -2.800000            -4.849742             0.034096
C            -1.400000            -4.849742             0.039975
C            -0.700000            -6.062178             0.056117
C             0.700000            -6.062178             0.070267
C             1.400000            -7.274613             0.015053
C             2.800000            -7.274613             0.055628
C             3.500000            -8.487049             0.007473
C             4.900000            -8.487049             0.057218
C             5.600000            -9.699485             0.027957
C             7.000000            -9.699485             0.025094
H             7.550000           -10.652112             0.065950
C            -7.000000            -2.424871             0.022311
C            -7.700000            -3.637307             0.072667
C            -7.000000            -4.849742             0.061197
C            -5.600000            -4.849742             0.092538
H            -7.550000            -1.472243             0.025718
C            -4.900000            -6.062178             0.036080
C            -3.500000            -6.062178             0.023750
C            -2.800000            -7.274613             0.090135
C            -1.400000            -7.274613             0.014892
C            -0.700000            -8.487049             0.030777
C             0.700000            -8.487049             0.082202
C             1.400000            -9.699485             0.028956
C             2.800000            -9.699485             0.031020
C             3.500000           -10.911920             0.073142
C             4.900000           -10.911920             0.058742
H             5.450000           -11.864548             0.062744
C            -9.100000            -3.637307             0.050415
C            -9.800000            -4.849742             0.041622
C            -9.100000            -6.062178             0.024758
C            -7.700000            -6.062178             0.014357
H            -9.650000            -2.684679             0.067673
C            -7.000000            -7.274613             0.029353
C            -5.600000            -7.274613             0.009769
C            -4.900000            -8.487049             0.035229
C            -3.500000            -8.487049             0.013547
C            -2.800000            -9.699485             0.024682
C            -1.400000            -9.699485             0.010767
C            -0.700000           -10.911920             0.083550
C             0.700000           -10.911920             0.003595
C             1.400000           -12.124356             0.007510
C             2.800000           -12.124356             0.031228
H             3.350000           -13.076984             0.051726
C           -11.200000            -4.849742             0.065916
C           -11.900000            -6.062178             0.044380
C           -11.200000            -7.274613             0.065425
C            -9.800000            -7.274613             0.067733
H           -11.750000            -3.897114             0.078671
H           -13.000000            -6.062178             0.007402
H           -11.750000            -8.227241             0.013603
C            -9.100000            -8.487049             0.072004
C            -7.700000            -8.487049             0.068375
H            -9.650000            -9.439677             0.037840
C            -7.000000            -9.699485             0.018690
C            -5.600000            -9.699485             0.060020
H            -7.550000           -10.652112             0.054170
C            -4.900000           -10.911920             0.028486
C            -3.500000           -10.911920             0.017464
H            -5.450000           -11.864548             0.021413
C            -2.800000           -12.124356             0.024850
C            -1.400000           -12.124356             0.086339
H            -3.350000           -13.076984             0.052529
C            -0.700000           -13.336791             0.010364
C             0.700000           -13.336791             0.083439
H            -1.250000           -14.289419             0.026429
H             1.250000           -14.289419             0.086077
