122
isomero_26_37
C             0.700000             1.212436             0.058891
C            -0.700000             1.212436             0.076714
C            -1.400000             0.000000             0.049357
C            -0.700000            -1.212436             0.006184
C             0.700000            -1.212436             0.005950
C             1.400000            -0.000000             0.025744
H             1.250000             2.165064             0.060086
H            -1.250000             2.165064             0.001546
C             2.800000             0.000000             0.082352
C             1.400000            -2.424871             0.073430
C             2.800000            -2.424871             0.082196
C             3.500000            -1.212436             0.017706
H             3.350000             0.952628             0.045457
C             4.900000            -1.212436             0.089425
C             3.500000            -3.637307             0.036965
C             4.900000            -3.637307             0.027247
C             5.600000            -2.424871             0.090793
H             5.450000            -0.259808             0.001122
C             7.000000            -2.424871             0.073789
C             5.600000            -4.849742             0.029718
C             7.000000            -4.849742             0.026348
C             7.700000            -3.637307             0.045840
H             7.550000            -1.472243             0.054790
C             9.100000            -3.637307             0.008074
C             7.700000            -6.062178             0.004689
C             9.100000            -6.062178             0.081236
C             9.800000            -4.849742             0.010387
H             9.650000            -2.684679             0.029833
C            11.200000            -4.849742             0.013294
C             9.800000            -7.274613             0.009268
C            11.200000            -7.274613             0.097026
C            11.900000            -6.062178             0.069496
H            11.750000            -3.897114             0.090635
H            11.750000            -8.227241             0.090691
H            13.000000            -6.062178             0.097443
C            -2.800000             0.000000             0.018633
C            -3.500000            -1.212436             0.053834
C            -2.800000            -2.424871             0.019116
C            -1.400000            -2.424871             0.003114
H            -3.350000             0.952628             0.094403
B            -0.700000            -3.637307             0.009960
C             0.700000            -3.637307             0.077463
C             1.400000            -4.849742             0.089579
C             2.800000            -4.849742             0.099275
C             3.500000            -6.062178             0.033639
C             4.900000            -6.062178             0.023585
C             5.600000            -7.274613             0.011001
C             7.000000            -7.274613             0.034717
C             7.700000            -8.487049             0.052070
C             9.100000            -8.487049             0.007108
H             9.650000            -9.439677             0.070528
C            -4.900000            -1.212436             0.029968
C            -5.600000            -2.424871             0.040746
C            -4.900000            -3.637307             0.071607
C            -3.500000            -3.637307             0.089115
H            -5.450000            -0.259808             0.087402
C            -2.800000            -4.849742             0.080163
N            -1.400000            -4.849742             0.077888
C            -0.700000            -6.062178             0.067383
C             0.700000            -6.062178             0.075220
C             1.400000            -7.274613             0.028565
C             2.800000            -7.274613             0.059073
C             3.500000            -8.487049             0.003104
C             4.900000            -8.487049             0.034322
C             5.600000            -9.699485             0.020508
C             7.000000            -9.699485             0.010422
H             7.550000           -10.652112             0.070076
C            -7.000000            -2.424871             0.041282
C            -7.700000            -3.637307             0.085435
C            -7.000000            -4.849742             0.004580
C            -5.600000            -4.849742             0.007128
H            -7.550000            -1.472243             0.032807
C            -4.900000            -6.062178             0.058520
C            -3.500000            -6.062178             0.064644
C            -2.800000            -7.274613             0.088611
C            -1.400000            -7.274613             0.085160
C            -0.700000            -8.487049             0.002286
C             0.700000            -8.487049             0.051885
C             1.400000            -9.699485             0.028090
C             2.800000            -9.699485             0.073005
C             3.500000           -10.911920             0.035353
C             4.900000           -10.911920             0.071191
H             5.450000           -11.864548             0.072131
C            -9.100000            -3.637307             0.095503
C            -9.800000            -4.849742             0.098849
C            -9.100000            -6.062178             0.062801
C            -7.700000            -6.062178             0.029708
H            -9.650000            -2.684679             0.025547
C            -7.000000            -7.274613             0.017605
C            -5.600000            -7.274613             0.082710
C            -4.900000            -8.487049             0.059427
C            -3.500000            -8.487049             0.095194
C            -2.800000            -9.699485             0.014209
C            -1.400000            -9.699485             0.051688
C            -0.700000           -10.911920             0.085396
C             0.700000           -10.911920             0.001733
C             1.400000           -12.124356             0.083033
C             2.800000           -12.124356             0.024234
H             3.350000           -13.076984             0.053550
C           -11.200000            -4.849742             0.007176
C           -11.900000            -6.062178             0.039914
C           -11.200000            -7.274613             0.050178
C            -9.800000            -7.274613             0.073937
H           -11.750000            -3.897114             0.049357
H           -13.000000            -6.062178             0.074230
H           -11.750000            -8.227241             0.061188
C            -9.100000            -8.487049             0.001425
C            -7.700000            -8.487049             0.091368
H            -9.650000            -9.439677             0.075767
C            -7.000000            -9.699485             0.026630
C            -5.600000            -9.699485             0.027141
H            -7.550000           -10.652112             0.019129
C            -4.900000           -10.911920             0.039433
C            -3.500000           -10.911920             0.068217
H            -5.450000           -11.864548             0.010568
C            -2.800000           -12.124356             0.022005
C            -1.400000           -12.124356             0.035910
H            -3.350000           -13.076984             0.076876
C            -0.700000           -13.336791             0.039016
C             0.700000           -13.336791             0.078560
H            -1.250000           -14.289419             0.016792
H             1.250000           -14.289419             0.052784
