122
isomero_52_40
C             0.700000             1.212436             0.048298
C            -0.700000             1.212436             0.084839
C            -1.400000             0.000000             0.035560
C            -0.700000            -1.212436             0.088714
C             0.700000            -1.212436             0.087283
C             1.400000            -0.000000             0.035553
H             1.250000             2.165064             0.030696
H            -1.250000             2.165064             0.064843
C             2.800000             0.000000             0.061849
C             1.400000            -2.424871             0.033832
C             2.800000            -2.424871             0.098209
C             3.500000            -1.212436             0.015039
H             3.350000             0.952628             0.015882
C             4.900000            -1.212436             0.025878
C             3.500000            -3.637307             0.006411
C             4.900000            -3.637307             0.014659
C             5.600000            -2.424871             0.059818
H             5.450000            -0.259808             0.015957
C             7.000000            -2.424871             0.088480
C             5.600000            -4.849742             0.030026
C             7.000000            -4.849742             0.050563
C             7.700000            -3.637307             0.074175
H             7.550000            -1.472243             0.017841
C             9.100000            -3.637307             0.041166
C             7.700000            -6.062178             0.002864
C             9.100000            -6.062178             0.022887
C             9.800000            -4.849742             0.037779
H             9.650000            -2.684679             0.078701
C            11.200000            -4.849742             0.048457
C             9.800000            -7.274613             0.052173
C            11.200000            -7.274613             0.023993
C            11.900000            -6.062178             0.075065
H            11.750000            -3.897114             0.066353
H            11.750000            -8.227241             0.037207
H            13.000000            -6.062178             0.053311
C            -2.800000             0.000000             0.082003
C            -3.500000            -1.212436             0.044151
C            -2.800000            -2.424871             0.074417
C            -1.400000            -2.424871             0.045662
H            -3.350000             0.952628             0.030775
C            -0.700000            -3.637307             0.083814
C             0.700000            -3.637307             0.074375
C             1.400000            -4.849742             0.097233
C             2.800000            -4.849742             0.097346
C             3.500000            -6.062178             0.051046
C             4.900000            -6.062178             0.067575
C             5.600000            -7.274613             0.029322
C             7.000000            -7.274613             0.008850
C             7.700000            -8.487049             0.043964
C             9.100000            -8.487049             0.011052
H             9.650000            -9.439677             0.054235
C            -4.900000            -1.212436             0.086148
C            -5.600000            -2.424871             0.079564
C            -4.900000            -3.637307             0.071557
C            -3.500000            -3.637307             0.099773
H            -5.450000            -0.259808             0.041488
C            -2.800000            -4.849742             0.036946
C            -1.400000            -4.849742             0.020209
C            -0.700000            -6.062178             0.089959
C             0.700000            -6.062178             0.035451
C             1.400000            -7.274613             0.014129
C             2.800000            -7.274613             0.094252
C             3.500000            -8.487049             0.089021
C             4.900000            -8.487049             0.055108
C             5.600000            -9.699485             0.006521
C             7.000000            -9.699485             0.066940
H             7.550000           -10.652112             0.052467
C            -7.000000            -2.424871             0.000066
C            -7.700000            -3.637307             0.036808
N            -7.000000            -4.849742             0.074101
C            -5.600000            -4.849742             0.035229
H            -7.550000            -1.472243             0.003133
C            -4.900000            -6.062178             0.091094
C            -3.500000            -6.062178             0.005270
C            -2.800000            -7.274613             0.036510
C            -1.400000            -7.274613             0.012551
C            -0.700000            -8.487049             0.096839
C             0.700000            -8.487049             0.063357
C             1.400000            -9.699485             0.043525
C             2.800000            -9.699485             0.014564
C             3.500000           -10.911920             0.001159
C             4.900000           -10.911920             0.009962
H             5.450000           -11.864548             0.063088
C            -9.100000            -3.637307             0.039918
C            -9.800000            -4.849742             0.018098
C            -9.100000            -6.062178             0.094319
B            -7.700000            -6.062178             0.000185
H            -9.650000            -2.684679             0.024236
C            -7.000000            -7.274613             0.024591
C            -5.600000            -7.274613             0.052543
C            -4.900000            -8.487049             0.096875
C            -3.500000            -8.487049             0.064100
C            -2.800000            -9.699485             0.055155
C            -1.400000            -9.699485             0.010852
C            -0.700000           -10.911920             0.069389
C             0.700000           -10.911920             0.089326
C             1.400000           -12.124356             0.027267
C             2.800000           -12.124356             0.052543
H             3.350000           -13.076984             0.038408
C           -11.200000            -4.849742             0.058015
C           -11.900000            -6.062178             0.021438
C           -11.200000            -7.274613             0.063798
C            -9.800000            -7.274613             0.050038
H           -11.750000            -3.897114             0.072160
H           -13.000000            -6.062178             0.033650
H           -11.750000            -8.227241             0.055888
C            -9.100000            -8.487049             0.079928
C            -7.700000            -8.487049             0.026455
H            -9.650000            -9.439677             0.048081
C            -7.000000            -9.699485             0.088729
C            -5.600000            -9.699485             0.092952
H            -7.550000           -10.652112             0.094326
C            -4.900000           -10.911920             0.041533
C            -3.500000           -10.911920             0.013578
H            -5.450000           -11.864548             0.058388
C            -2.800000           -12.124356             0.043675
C            -1.400000           -12.124356             0.027712
H            -3.350000           -13.076984             0.005353
C            -0.700000           -13.336791             0.076155
C             0.700000           -13.336791             0.025091
H            -1.250000           -14.289419             0.035061
H             1.250000           -14.289419             0.051449
