122
isomero_2_5
C             0.700000             1.212436             0.051070
B            -0.700000             1.212436             0.062863
N            -1.400000             0.000000             0.029223
C            -0.700000            -1.212436             0.021496
C             0.700000            -1.212436             0.057439
C             1.400000            -0.000000             0.057293
H             1.250000             2.165064             0.038566
H            -1.250000             2.165064             0.000262
C             2.800000             0.000000             0.038388
C             1.400000            -2.424871             0.038663
C             2.800000            -2.424871             0.043500
C             3.500000            -1.212436             0.035245
H             3.350000             0.952628             0.009305
C             4.900000            -1.212436             0.024410
C             3.500000            -3.637307             0.084464
C             4.900000            -3.637307             0.028161
C             5.600000            -2.424871             0.016010
H             5.450000            -0.259808             0.008632
C             7.000000            -2.424871             0.017733
C             5.600000            -4.849742             0.020480
C             7.000000            -4.849742             0.058926
C             7.700000            -3.637307             0.074651
H             7.550000            -1.472243             0.062920
C             9.100000            -3.637307             0.057232
C             7.700000            -6.062178             0.022681
C             9.100000            -6.062178             0.053287
C             9.800000            -4.849742             0.049666
H             9.650000            -2.684679             0.039289
C            11.200000            -4.849742             0.069796
C             9.800000            -7.274613             0.070668
C            11.200000            -7.274613             0.082270
C            11.900000            -6.062178             0.052693
H            11.750000            -3.897114             0.070280
H            11.750000            -8.227241             0.065130
H            13.000000            -6.062178             0.093613
C            -2.800000             0.000000             0.025469
C            -3.500000            -1.212436             0.055168
C            -2.800000            -2.424871             0.073270
C            -1.400000            -2.424871             0.048166
H            -3.350000             0.952628             0.051642
C            -0.700000            -3.637307             0.098029
C             0.700000            -3.637307             0.079204
C             1.400000            -4.849742             0.089462
C             2.800000            -4.849742             0.076902
C             3.500000            -6.062178             0.083225
C             4.900000            -6.062178             0.058827
C             5.600000            -7.274613             0.041744
C             7.000000            -7.274613             0.002319
C             7.700000            -8.487049             0.054932
C             9.100000            -8.487049             0.095998
H             9.650000            -9.439677             0.014761
C            -4.900000            -1.212436             0.040415
C            -5.600000            -2.424871             0.086233
C            -4.900000            -3.637307             0.048337
C            -3.500000            -3.637307             0.022616
H            -5.450000            -0.259808             0.002128
C            -2.800000            -4.849742             0.019197
C            -1.400000            -4.849742             0.075556
C            -0.700000            -6.062178             0.025924
C             0.700000            -6.062178             0.033933
C             1.400000            -7.274613             0.086925
C             2.800000            -7.274613             0.092932
C             3.500000            -8.487049             0.067065
C             4.900000            -8.487049             0.062276
C             5.600000            -9.699485             0.094355
C             7.000000            -9.699485             0.059212
H             7.550000           -10.652112             0.095579
C            -7.000000            -2.424871             0.061145
C            -7.700000            -3.637307             0.037413
C            -7.000000            -4.849742             0.033798
C            -5.600000            -4.849742             0.069293
H            -7.550000            -1.472243             0.070274
C            -4.900000            -6.062178             0.009445
C            -3.500000            -6.062178             0.035418
C            -2.800000            -7.274613             0.035612
C            -1.400000            -7.274613             0.035319
C            -0.700000            -8.487049             0.097190
C             0.700000            -8.487049             0.079543
C             1.400000            -9.699485             0.085009
C             2.800000            -9.699485             0.040693
C             3.500000           -10.911920             0.023446
C             4.900000           -10.911920             0.027071
H             5.450000           -11.864548             0.000595
C            -9.100000            -3.637307             0.049374
C            -9.800000            -4.849742             0.058977
C            -9.100000            -6.062178             0.083850
C            -7.700000            -6.062178             0.093568
H            -9.650000            -2.684679             0.089558
C            -7.000000            -7.274613             0.024018
C            -5.600000            -7.274613             0.038361
C            -4.900000            -8.487049             0.095379
C            -3.500000            -8.487049             0.029948
C            -2.800000            -9.699485             0.048607
C            -1.400000            -9.699485             0.094786
C            -0.700000           -10.911920             0.017141
C             0.700000           -10.911920             0.085587
C             1.400000           -12.124356             0.054750
C             2.800000           -12.124356             0.093408
H             3.350000           -13.076984             0.023981
C           -11.200000            -4.849742             0.072804
C           -11.900000            -6.062178             0.021871
C           -11.200000            -7.274613             0.024764
C            -9.800000            -7.274613             0.043529
H           -11.750000            -3.897114             0.013525
H           -13.000000            -6.062178             0.028829
H           -11.750000            -8.227241             0.012680
C            -9.100000            -8.487049             0.099910
C            -7.700000            -8.487049             0.024924
H            -9.650000            -9.439677             0.047413
C            -7.000000            -9.699485             0.027748
C            -5.600000            -9.699485             0.069692
H            -7.550000           -10.652112             0.072695
C            -4.900000           -10.911920             0.095842
C            -3.500000           -10.911920             0.059591
H            -5.450000           -11.864548             0.049882
C            -2.800000           -12.124356             0.074719
C            -1.400000           -12.124356             0.016251
H            -3.350000           -13.076984             0.029251
C            -0.700000           -13.336791             0.049104
C             0.700000           -13.336791             0.093475
H            -1.250000           -14.289419             0.044303
H             1.250000           -14.289419             0.030357
