122
isomero_50_38
C             0.700000             1.212436             0.012557
C            -0.700000             1.212436             0.094808
C            -1.400000             0.000000             0.037125
C            -0.700000            -1.212436             0.058371
C             0.700000            -1.212436             0.084247
C             1.400000            -0.000000             0.001002
H             1.250000             2.165064             0.090402
H            -1.250000             2.165064             0.089854
C             2.800000             0.000000             0.067759
C             1.400000            -2.424871             0.093158
C             2.800000            -2.424871             0.015930
C             3.500000            -1.212436             0.011348
H             3.350000             0.952628             0.072588
C             4.900000            -1.212436             0.033472
C             3.500000            -3.637307             0.011846
C             4.900000            -3.637307             0.052832
C             5.600000            -2.424871             0.018358
H             5.450000            -0.259808             0.064526
C             7.000000            -2.424871             0.043023
C             5.600000            -4.849742             0.018082
C             7.000000            -4.849742             0.039711
C             7.700000            -3.637307             0.066410
H             7.550000            -1.472243             0.072813
C             9.100000            -3.637307             0.092231
C             7.700000            -6.062178             0.041629
C             9.100000            -6.062178             0.007968
C             9.800000            -4.849742             0.091018
H             9.650000            -2.684679             0.091522
C            11.200000            -4.849742             0.004463
C             9.800000            -7.274613             0.023607
C            11.200000            -7.274613             0.065357
C            11.900000            -6.062178             0.067995
H            11.750000            -3.897114             0.001388
H            11.750000            -8.227241             0.057694
H            13.000000            -6.062178             0.051191
C            -2.800000             0.000000             0.046541
C            -3.500000            -1.212436             0.068493
C            -2.800000            -2.424871             0.063276
C            -1.400000            -2.424871             0.076355
H            -3.350000             0.952628             0.055927
C            -0.700000            -3.637307             0.078261
C             0.700000            -3.637307             0.026148
C             1.400000            -4.849742             0.015705
C             2.800000            -4.849742             0.092536
C             3.500000            -6.062178             0.080994
C             4.900000            -6.062178             0.044616
C             5.600000            -7.274613             0.047824
C             7.000000            -7.274613             0.005563
C             7.700000            -8.487049             0.039876
C             9.100000            -8.487049             0.098576
H             9.650000            -9.439677             0.029042
C            -4.900000            -1.212436             0.041753
C            -5.600000            -2.424871             0.094868
C            -4.900000            -3.637307             0.066124
C            -3.500000            -3.637307             0.080103
H            -5.450000            -0.259808             0.056306
N            -2.800000            -4.849742             0.064936
C            -1.400000            -4.849742             0.081806
C            -0.700000            -6.062178             0.064023
C             0.700000            -6.062178             0.088263
C             1.400000            -7.274613             0.024517
C             2.800000            -7.274613             0.040246
C             3.500000            -8.487049             0.098042
C             4.900000            -8.487049             0.004106
C             5.600000            -9.699485             0.088409
C             7.000000            -9.699485             0.049088
H             7.550000           -10.652112             0.005529
C            -7.000000            -2.424871             0.023227
C            -7.700000            -3.637307             0.013476
C            -7.000000            -4.849742             0.029311
C            -5.600000            -4.849742             0.043740
H            -7.550000            -1.472243             0.077008
C            -4.900000            -6.062178             0.094408
B            -3.500000            -6.062178             0.041433
C            -2.800000            -7.274613             0.011683
C            -1.400000            -7.274613             0.064736
C            -0.700000            -8.487049             0.082854
C             0.700000            -8.487049             0.074686
C             1.400000            -9.699485             0.076961
C             2.800000            -9.699485             0.090719
C             3.500000           -10.911920             0.008159
C             4.900000           -10.911920             0.044694
H             5.450000           -11.864548             0.054659
C            -9.100000            -3.637307             0.074585
C            -9.800000            -4.849742             0.038762
C            -9.100000            -6.062178             0.004341
C            -7.700000            -6.062178             0.004674
H            -9.650000            -2.684679             0.066255
C            -7.000000            -7.274613             0.092315
C            -5.600000            -7.274613             0.030742
C            -4.900000            -8.487049             0.088998
C            -3.500000            -8.487049             0.099146
C            -2.800000            -9.699485             0.015072
C            -1.400000            -9.699485             0.055675
C            -0.700000           -10.911920             0.084881
C             0.700000           -10.911920             0.098110
C             1.400000           -12.124356             0.011416
C             2.800000           -12.124356             0.016966
H             3.350000           -13.076984             0.027959
C           -11.200000            -4.849742             0.039459
C           -11.900000            -6.062178             0.006361
C           -11.200000            -7.274613             0.095381
C            -9.800000            -7.274613             0.014327
H           -11.750000            -3.897114             0.090650
H           -13.000000            -6.062178             0.027910
H           -11.750000            -8.227241             0.053008
C            -9.100000            -8.487049             0.077959
C            -7.700000            -8.487049             0.005705
H            -9.650000            -9.439677             0.082885
C            -7.000000            -9.699485             0.051431
C            -5.600000            -9.699485             0.034819
H            -7.550000           -10.652112             0.094313
C            -4.900000           -10.911920             0.049049
C            -3.500000           -10.911920             0.022786
H            -5.450000           -11.864548             0.025414
C            -2.800000           -12.124356             0.093647
C            -1.400000           -12.124356             0.075337
H            -3.350000           -13.076984             0.069423
C            -0.700000           -13.336791             0.081426
C             0.700000           -13.336791             0.069375
H            -1.250000           -14.289419             0.068708
H             1.250000           -14.289419             0.055051
