122
isomero_6_5
C             0.700000             1.212436             0.034828
C            -0.700000             1.212436             0.072186
N            -1.400000             0.000000             0.068052
C            -0.700000            -1.212436             0.044546
C             0.700000            -1.212436             0.026406
C             1.400000            -0.000000             0.073847
H             1.250000             2.165064             0.014925
H            -1.250000             2.165064             0.019039
C             2.800000             0.000000             0.083006
C             1.400000            -2.424871             0.018621
C             2.800000            -2.424871             0.042294
C             3.500000            -1.212436             0.078015
H             3.350000             0.952628             0.045133
C             4.900000            -1.212436             0.082661
C             3.500000            -3.637307             0.000133
C             4.900000            -3.637307             0.093336
C             5.600000            -2.424871             0.080523
H             5.450000            -0.259808             0.045464
C             7.000000            -2.424871             0.080673
C             5.600000            -4.849742             0.007130
C             7.000000            -4.849742             0.041444
C             7.700000            -3.637307             0.017546
H             7.550000            -1.472243             0.039717
C             9.100000            -3.637307             0.039708
C             7.700000            -6.062178             0.055713
C             9.100000            -6.062178             0.047150
C             9.800000            -4.849742             0.072279
H             9.650000            -2.684679             0.013411
C            11.200000            -4.849742             0.005782
C             9.800000            -7.274613             0.052808
C            11.200000            -7.274613             0.097309
C            11.900000            -6.062178             0.064685
H            11.750000            -3.897114             0.076027
H            11.750000            -8.227241             0.005677
H            13.000000            -6.062178             0.090956
B            -2.800000             0.000000             0.086222
C            -3.500000            -1.212436             0.075164
C            -2.800000            -2.424871             0.042434
C            -1.400000            -2.424871             0.042477
H            -3.350000             0.952628             0.064747
C            -0.700000            -3.637307             0.082592
C             0.700000            -3.637307             0.024830
C             1.400000            -4.849742             0.076766
C             2.800000            -4.849742             0.096387
C             3.500000            -6.062178             0.024747
C             4.900000            -6.062178             0.052033
C             5.600000            -7.274613             0.094575
C             7.000000            -7.274613             0.088872
C             7.700000            -8.487049             0.020668
C             9.100000            -8.487049             0.064985
H             9.650000            -9.439677             0.054620
C            -4.900000            -1.212436             0.076915
C            -5.600000            -2.424871             0.077706
C            -4.900000            -3.637307             0.052443
C            -3.500000            -3.637307             0.049528
H            -5.450000            -0.259808             0.044235
C            -2.800000            -4.849742             0.056437
C            -1.400000            -4.849742             0.052733
C            -0.700000            -6.062178             0.043421
C             0.700000            -6.062178             0.072892
C             1.400000            -7.274613             0.070944
C             2.800000            -7.274613             0.045846
C             3.500000            -8.487049             0.083695
C             4.900000            -8.487049             0.098880
C             5.600000            -9.699485             0.005202
C             7.000000            -9.699485             0.067481
H             7.550000           -10.652112             0.064795
C            -7.000000            -2.424871             0.025809
C            -7.700000            -3.637307             0.043662
C            -7.000000            -4.849742             0.098996
C            -5.600000            -4.849742             0.034331
H            -7.550000            -1.472243             0.009212
C            -4.900000            -6.062178             0.064357
C            -3.500000            -6.062178             0.062436
C            -2.800000            -7.274613             0.044044
C            -1.400000            -7.274613             0.051895
C            -0.700000            -8.487049             0.056139
C             0.700000            -8.487049             0.056924
C             1.400000            -9.699485             0.066998
C             2.800000            -9.699485             0.077209
C             3.500000           -10.911920             0.003490
C             4.900000           -10.911920             0.016760
H             5.450000           -11.864548             0.091792
C            -9.100000            -3.637307             0.023568
C            -9.800000            -4.849742             0.067247
C            -9.100000            -6.062178             0.031702
C            -7.700000            -6.062178             0.062373
H            -9.650000            -2.684679             0.085687
C            -7.000000            -7.274613             0.040054
C            -5.600000            -7.274613             0.054009
C            -4.900000            -8.487049             0.093301
C            -3.500000            -8.487049             0.029764
C            -2.800000            -9.699485             0.026670
C            -1.400000            -9.699485             0.083120
C            -0.700000           -10.911920             0.087688
C             0.700000           -10.911920             0.070673
C             1.400000           -12.124356             0.072632
C             2.800000           -12.124356             0.063546
H             3.350000           -13.076984             0.064393
C           -11.200000            -4.849742             0.035814
C           -11.900000            -6.062178             0.036967
C           -11.200000            -7.274613             0.004787
C            -9.800000            -7.274613             0.001650
H           -11.750000            -3.897114             0.055633
H           -13.000000            -6.062178             0.045249
H           -11.750000            -8.227241             0.070486
C            -9.100000            -8.487049             0.067797
C            -7.700000            -8.487049             0.025477
H            -9.650000            -9.439677             0.049291
C            -7.000000            -9.699485             0.016188
C            -5.600000            -9.699485             0.095537
H            -7.550000           -10.652112             0.020314
C            -4.900000           -10.911920             0.016269
C            -3.500000           -10.911920             0.024964
H            -5.450000           -11.864548             0.069380
C            -2.800000           -12.124356             0.098652
C            -1.400000           -12.124356             0.048971
H            -3.350000           -13.076984             0.085172
C            -0.700000           -13.336791             0.047290
C             0.700000           -13.336791             0.006839
H            -1.250000           -14.289419             0.026006
H             1.250000           -14.289419             0.014076
