122
isomero_41_53
C             0.700000             1.212436             0.037454
C            -0.700000             1.212436             0.099332
C            -1.400000             0.000000             0.090812
C            -0.700000            -1.212436             0.060312
C             0.700000            -1.212436             0.034841
C             1.400000            -0.000000             0.051334
H             1.250000             2.165064             0.034521
H            -1.250000             2.165064             0.092540
C             2.800000             0.000000             0.088014
C             1.400000            -2.424871             0.053824
C             2.800000            -2.424871             0.089594
C             3.500000            -1.212436             0.097380
H             3.350000             0.952628             0.023095
C             4.900000            -1.212436             0.018513
C             3.500000            -3.637307             0.031623
C             4.900000            -3.637307             0.001256
C             5.600000            -2.424871             0.078442
H             5.450000            -0.259808             0.034961
C             7.000000            -2.424871             0.058549
C             5.600000            -4.849742             0.074466
C             7.000000            -4.849742             0.015874
C             7.700000            -3.637307             0.025583
H             7.550000            -1.472243             0.085573
C             9.100000            -3.637307             0.016927
C             7.700000            -6.062178             0.084076
C             9.100000            -6.062178             0.074610
C             9.800000            -4.849742             0.043713
H             9.650000            -2.684679             0.044120
C            11.200000            -4.849742             0.089829
C             9.800000            -7.274613             0.060991
C            11.200000            -7.274613             0.053882
C            11.900000            -6.062178             0.004831
H            11.750000            -3.897114             0.057309
H            11.750000            -8.227241             0.076911
H            13.000000            -6.062178             0.048083
C            -2.800000             0.000000             0.090070
C            -3.500000            -1.212436             0.063321
C            -2.800000            -2.424871             0.048301
C            -1.400000            -2.424871             0.003612
H            -3.350000             0.952628             0.027386
C            -0.700000            -3.637307             0.049130
C             0.700000            -3.637307             0.031134
C             1.400000            -4.849742             0.042151
C             2.800000            -4.849742             0.090431
C             3.500000            -6.062178             0.068193
C             4.900000            -6.062178             0.061058
C             5.600000            -7.274613             0.080740
C             7.000000            -7.274613             0.090146
C             7.700000            -8.487049             0.033766
C             9.100000            -8.487049             0.097451
H             9.650000            -9.439677             0.011266
C            -4.900000            -1.212436             0.051644
C            -5.600000            -2.424871             0.084238
C            -4.900000            -3.637307             0.099633
C            -3.500000            -3.637307             0.001030
H            -5.450000            -0.259808             0.097213
C            -2.800000            -4.849742             0.095987
C            -1.400000            -4.849742             0.081276
C            -0.700000            -6.062178             0.041285
C             0.700000            -6.062178             0.090181
C             1.400000            -7.274613             0.044986
C             2.800000            -7.274613             0.074857
C             3.500000            -8.487049             0.082769
C             4.900000            -8.487049             0.088436
C             5.600000            -9.699485             0.036493
C             7.000000            -9.699485             0.030021
H             7.550000           -10.652112             0.082041
C            -7.000000            -2.424871             0.015141
C            -7.700000            -3.637307             0.098769
C            -7.000000            -4.849742             0.012466
C            -5.600000            -4.849742             0.071699
H            -7.550000            -1.472243             0.008881
C            -4.900000            -6.062178             0.035671
C            -3.500000            -6.062178             0.038812
C            -2.800000            -7.274613             0.038253
C            -1.400000            -7.274613             0.098978
C            -0.700000            -8.487049             0.002484
C             0.700000            -8.487049             0.073739
C             1.400000            -9.699485             0.030565
C             2.800000            -9.699485             0.021985
C             3.500000           -10.911920             0.059076
C             4.900000           -10.911920             0.063592
H             5.450000           -11.864548             0.077876
C            -9.100000            -3.637307             0.005542
B            -9.800000            -4.849742             0.089718
N            -9.100000            -6.062178             0.019638
C            -7.700000            -6.062178             0.088369
H            -9.650000            -2.684679             0.032377
C            -7.000000            -7.274613             0.022844
C            -5.600000            -7.274613             0.045033
C            -4.900000            -8.487049             0.012467
C            -3.500000            -8.487049             0.065144
C            -2.800000            -9.699485             0.001030
C            -1.400000            -9.699485             0.055437
C            -0.700000           -10.911920             0.088143
C             0.700000           -10.911920             0.080742
C             1.400000           -12.124356             0.006414
C             2.800000           -12.124356             0.028007
H             3.350000           -13.076984             0.084265
C           -11.200000            -4.849742             0.035616
C           -11.900000            -6.062178             0.001871
C           -11.200000            -7.274613             0.053913
C            -9.800000            -7.274613             0.029091
H           -11.750000            -3.897114             0.094340
H           -13.000000            -6.062178             0.034899
H           -11.750000            -8.227241             0.088783
C            -9.100000            -8.487049             0.023770
C            -7.700000            -8.487049             0.094265
H            -9.650000            -9.439677             0.059043
C            -7.000000            -9.699485             0.029044
C            -5.600000            -9.699485             0.059875
H            -7.550000           -10.652112             0.067408
C            -4.900000           -10.911920             0.081968
C            -3.500000           -10.911920             0.002675
H            -5.450000           -11.864548             0.008409
C            -2.800000           -12.124356             0.068608
C            -1.400000           -12.124356             0.050483
H            -3.350000           -13.076984             0.097719
C            -0.700000           -13.336791             0.097176
C             0.700000           -13.336791             0.070321
H            -1.250000           -14.289419             0.009592
H             1.250000           -14.289419             0.000747
