122
isomero_28_27
C             0.700000             1.212436             0.031540
C            -0.700000             1.212436             0.095508
C            -1.400000             0.000000             0.034689
C            -0.700000            -1.212436             0.094161
C             0.700000            -1.212436             0.069576
C             1.400000            -0.000000             0.070922
H             1.250000             2.165064             0.011196
H            -1.250000             2.165064             0.046264
C             2.800000             0.000000             0.083042
C             1.400000            -2.424871             0.033112
C             2.800000            -2.424871             0.010041
C             3.500000            -1.212436             0.048233
H             3.350000             0.952628             0.062607
C             4.900000            -1.212436             0.019576
C             3.500000            -3.637307             0.080038
C             4.900000            -3.637307             0.003149
C             5.600000            -2.424871             0.069771
H             5.450000            -0.259808             0.053136
C             7.000000            -2.424871             0.036765
C             5.600000            -4.849742             0.097197
C             7.000000            -4.849742             0.084652
C             7.700000            -3.637307             0.002297
H             7.550000            -1.472243             0.072013
C             9.100000            -3.637307             0.062120
C             7.700000            -6.062178             0.045422
C             9.100000            -6.062178             0.037268
C             9.800000            -4.849742             0.085594
H             9.650000            -2.684679             0.054273
C            11.200000            -4.849742             0.000155
C             9.800000            -7.274613             0.058832
C            11.200000            -7.274613             0.003644
C            11.900000            -6.062178             0.039675
H            11.750000            -3.897114             0.057754
H            11.750000            -8.227241             0.092923
H            13.000000            -6.062178             0.026053
C            -2.800000             0.000000             0.035624
C            -3.500000            -1.212436             0.004562
C            -2.800000            -2.424871             0.090702
C            -1.400000            -2.424871             0.072118
H            -3.350000             0.952628             0.083691
C            -0.700000            -3.637307             0.003541
C             0.700000            -3.637307             0.019678
C             1.400000            -4.849742             0.099514
C             2.800000            -4.849742             0.091695
C             3.500000            -6.062178             0.082689
C             4.900000            -6.062178             0.064175
C             5.600000            -7.274613             0.065156
C             7.000000            -7.274613             0.077235
C             7.700000            -8.487049             0.008879
C             9.100000            -8.487049             0.070394
H             9.650000            -9.439677             0.022934
C            -4.900000            -1.212436             0.096551
C            -5.600000            -2.424871             0.027229
B            -4.900000            -3.637307             0.002698
N            -3.500000            -3.637307             0.001782
H            -5.450000            -0.259808             0.078302
C            -2.800000            -4.849742             0.033070
C            -1.400000            -4.849742             0.013061
C            -0.700000            -6.062178             0.067360
C             0.700000            -6.062178             0.083539
C             1.400000            -7.274613             0.051851
C             2.800000            -7.274613             0.077067
C             3.500000            -8.487049             0.086589
C             4.900000            -8.487049             0.073731
C             5.600000            -9.699485             0.091648
C             7.000000            -9.699485             0.009540
H             7.550000           -10.652112             0.006783
C            -7.000000            -2.424871             0.035985
C            -7.700000            -3.637307             0.020160
C            -7.000000            -4.849742             0.048381
C            -5.600000            -4.849742             0.054147
H            -7.550000            -1.472243             0.076986
C            -4.900000            -6.062178             0.005033
C            -3.500000            -6.062178             0.022227
C            -2.800000            -7.274613             0.005763
C            -1.400000            -7.274613             0.090722
C            -0.700000            -8.487049             0.022896
C             0.700000            -8.487049             0.046126
C             1.400000            -9.699485             0.041101
C             2.800000            -9.699485             0.021229
C             3.500000           -10.911920             0.077151
C             4.900000           -10.911920             0.007906
H             5.450000           -11.864548             0.010355
C            -9.100000            -3.637307             0.009052
C            -9.800000            -4.849742             0.036899
C            -9.100000            -6.062178             0.009203
C            -7.700000            -6.062178             0.039812
H            -9.650000            -2.684679             0.019433
C            -7.000000            -7.274613             0.052919
C            -5.600000            -7.274613             0.077036
C            -4.900000            -8.487049             0.091585
C            -3.500000            -8.487049             0.010331
C            -2.800000            -9.699485             0.067262
C            -1.400000            -9.699485             0.032244
C            -0.700000           -10.911920             0.097034
C             0.700000           -10.911920             0.090924
C             1.400000           -12.124356             0.038545
C             2.800000           -12.124356             0.050996
H             3.350000           -13.076984             0.056133
C           -11.200000            -4.849742             0.053250
C           -11.900000            -6.062178             0.051727
C           -11.200000            -7.274613             0.053697
C            -9.800000            -7.274613             0.045376
H           -11.750000            -3.897114             0.075352
H           -13.000000            -6.062178             0.005915
H           -11.750000            -8.227241             0.085077
C            -9.100000            -8.487049             0.044786
C            -7.700000            -8.487049             0.075229
H            -9.650000            -9.439677             0.004747
C            -7.000000            -9.699485             0.020782
C            -5.600000            -9.699485             0.001305
H            -7.550000           -10.652112             0.068224
C            -4.900000           -10.911920             0.039984
C            -3.500000           -10.911920             0.057557
H            -5.450000           -11.864548             0.077572
C            -2.800000           -12.124356             0.058180
C            -1.400000           -12.124356             0.037536
H            -3.350000           -13.076984             0.022035
C            -0.700000           -13.336791             0.059062
C             0.700000           -13.336791             0.027445
H            -1.250000           -14.289419             0.080378
H             1.250000           -14.289419             0.072109
