122
isomero_28_19
C             0.700000             1.212436             0.013430
C            -0.700000             1.212436             0.021646
C            -1.400000             0.000000             0.098601
C            -0.700000            -1.212436             0.071433
C             0.700000            -1.212436             0.060166
C             1.400000            -0.000000             0.064359
H             1.250000             2.165064             0.033297
H            -1.250000             2.165064             0.016230
C             2.800000             0.000000             0.084659
C             1.400000            -2.424871             0.091316
C             2.800000            -2.424871             0.036277
C             3.500000            -1.212436             0.065347
H             3.350000             0.952628             0.083558
C             4.900000            -1.212436             0.044525
C             3.500000            -3.637307             0.030945
C             4.900000            -3.637307             0.075308
C             5.600000            -2.424871             0.012866
H             5.450000            -0.259808             0.099723
C             7.000000            -2.424871             0.067616
C             5.600000            -4.849742             0.041247
C             7.000000            -4.849742             0.021278
C             7.700000            -3.637307             0.022580
H             7.550000            -1.472243             0.070981
C             9.100000            -3.637307             0.057578
C             7.700000            -6.062178             0.037057
C             9.100000            -6.062178             0.096776
C             9.800000            -4.849742             0.075923
H             9.650000            -2.684679             0.043810
C            11.200000            -4.849742             0.011654
C             9.800000            -7.274613             0.085673
C            11.200000            -7.274613             0.080873
C            11.900000            -6.062178             0.037910
H            11.750000            -3.897114             0.017378
H            11.750000            -8.227241             0.007526
H            13.000000            -6.062178             0.006773
C            -2.800000             0.000000             0.045700
C            -3.500000            -1.212436             0.003945
C            -2.800000            -2.424871             0.083220
C            -1.400000            -2.424871             0.010242
H            -3.350000             0.952628             0.060892
C            -0.700000            -3.637307             0.095637
C             0.700000            -3.637307             0.074184
C             1.400000            -4.849742             0.000503
C             2.800000            -4.849742             0.002073
C             3.500000            -6.062178             0.098850
C             4.900000            -6.062178             0.049336
C             5.600000            -7.274613             0.078053
C             7.000000            -7.274613             0.069069
C             7.700000            -8.487049             0.000099
C             9.100000            -8.487049             0.035029
H             9.650000            -9.439677             0.054226
C            -4.900000            -1.212436             0.004434
N            -5.600000            -2.424871             0.011454
B            -4.900000            -3.637307             0.064242
C            -3.500000            -3.637307             0.088469
H            -5.450000            -0.259808             0.048890
C            -2.800000            -4.849742             0.078488
C            -1.400000            -4.849742             0.061568
C            -0.700000            -6.062178             0.051683
C             0.700000            -6.062178             0.034714
C             1.400000            -7.274613             0.028626
C             2.800000            -7.274613             0.005262
C             3.500000            -8.487049             0.055448
C             4.900000            -8.487049             0.095655
C             5.600000            -9.699485             0.043058
C             7.000000            -9.699485             0.029687
H             7.550000           -10.652112             0.002344
C            -7.000000            -2.424871             0.019881
C            -7.700000            -3.637307             0.096027
C            -7.000000            -4.849742             0.047532
C            -5.600000            -4.849742             0.051436
H            -7.550000            -1.472243             0.023478
C            -4.900000            -6.062178             0.077044
C            -3.500000            -6.062178             0.015023
C            -2.800000            -7.274613             0.094851
C            -1.400000            -7.274613             0.069645
C            -0.700000            -8.487049             0.060560
C             0.700000            -8.487049             0.060974
C             1.400000            -9.699485             0.045859
C             2.800000            -9.699485             0.059579
C             3.500000           -10.911920             0.038691
C             4.900000           -10.911920             0.035666
H             5.450000           -11.864548             0.090484
C            -9.100000            -3.637307             0.088066
C            -9.800000            -4.849742             0.071898
C            -9.100000            -6.062178             0.045241
C            -7.700000            -6.062178             0.018530
H            -9.650000            -2.684679             0.011924
C            -7.000000            -7.274613             0.090784
C            -5.600000            -7.274613             0.033703
C            -4.900000            -8.487049             0.002423
C            -3.500000            -8.487049             0.060337
C            -2.800000            -9.699485             0.080311
C            -1.400000            -9.699485             0.075880
C            -0.700000           -10.911920             0.035033
C             0.700000           -10.911920             0.085307
C             1.400000           -12.124356             0.099445
C             2.800000           -12.124356             0.043545
H             3.350000           -13.076984             0.059501
C           -11.200000            -4.849742             0.042052
C           -11.900000            -6.062178             0.093050
C           -11.200000            -7.274613             0.044673
C            -9.800000            -7.274613             0.041282
H           -11.750000            -3.897114             0.007446
H           -13.000000            -6.062178             0.043948
H           -11.750000            -8.227241             0.027992
C            -9.100000            -8.487049             0.061149
C            -7.700000            -8.487049             0.029725
H            -9.650000            -9.439677             0.091889
C            -7.000000            -9.699485             0.091485
C            -5.600000            -9.699485             0.037834
H            -7.550000           -10.652112             0.099864
C            -4.900000           -10.911920             0.078283
C            -3.500000           -10.911920             0.077737
H            -5.450000           -11.864548             0.041964
C            -2.800000           -12.124356             0.098882
C            -1.400000           -12.124356             0.048251
H            -3.350000           -13.076984             0.081281
C            -0.700000           -13.336791             0.021395
C             0.700000           -13.336791             0.046519
H            -1.250000           -14.289419             0.051691
H             1.250000           -14.289419             0.015379
