122
isomero_29_20
C             0.700000             1.212436             0.017129
C            -0.700000             1.212436             0.058460
C            -1.400000             0.000000             0.063899
C            -0.700000            -1.212436             0.065568
C             0.700000            -1.212436             0.046919
C             1.400000            -0.000000             0.068254
H             1.250000             2.165064             0.021282
H            -1.250000             2.165064             0.065231
C             2.800000             0.000000             0.010290
C             1.400000            -2.424871             0.055690
C             2.800000            -2.424871             0.043949
C             3.500000            -1.212436             0.000359
H             3.350000             0.952628             0.028323
C             4.900000            -1.212436             0.006687
C             3.500000            -3.637307             0.096624
C             4.900000            -3.637307             0.073478
C             5.600000            -2.424871             0.029161
H             5.450000            -0.259808             0.035588
C             7.000000            -2.424871             0.061334
C             5.600000            -4.849742             0.070238
C             7.000000            -4.849742             0.057619
C             7.700000            -3.637307             0.082059
H             7.550000            -1.472243             0.016049
C             9.100000            -3.637307             0.088185
C             7.700000            -6.062178             0.003452
C             9.100000            -6.062178             0.068333
C             9.800000            -4.849742             0.034946
H             9.650000            -2.684679             0.009231
C            11.200000            -4.849742             0.011652
C             9.800000            -7.274613             0.072070
C            11.200000            -7.274613             0.029987
C            11.900000            -6.062178             0.045522
H            11.750000            -3.897114             0.098359
H            11.750000            -8.227241             0.098150
H            13.000000            -6.062178             0.086156
C            -2.800000             0.000000             0.025008
C            -3.500000            -1.212436             0.005071
C            -2.800000            -2.424871             0.091552
C            -1.400000            -2.424871             0.050009
H            -3.350000             0.952628             0.041117
C            -0.700000            -3.637307             0.053306
C             0.700000            -3.637307             0.070891
C             1.400000            -4.849742             0.079782
C             2.800000            -4.849742             0.024100
C             3.500000            -6.062178             0.023934
C             4.900000            -6.062178             0.060136
C             5.600000            -7.274613             0.091773
C             7.000000            -7.274613             0.052404
C             7.700000            -8.487049             0.023066
C             9.100000            -8.487049             0.048120
H             9.650000            -9.439677             0.000664
C            -4.900000            -1.212436             0.088785
C            -5.600000            -2.424871             0.069343
C            -4.900000            -3.637307             0.037048
C            -3.500000            -3.637307             0.010666
H            -5.450000            -0.259808             0.086252
C            -2.800000            -4.849742             0.075936
C            -1.400000            -4.849742             0.058127
C            -0.700000            -6.062178             0.009009
C             0.700000            -6.062178             0.079060
C             1.400000            -7.274613             0.058735
C             2.800000            -7.274613             0.073218
C             3.500000            -8.487049             0.065973
C             4.900000            -8.487049             0.006819
C             5.600000            -9.699485             0.081517
C             7.000000            -9.699485             0.002872
H             7.550000           -10.652112             0.007633
N            -7.000000            -2.424871             0.019926
B            -7.700000            -3.637307             0.040244
C            -7.000000            -4.849742             0.045493
C            -5.600000            -4.849742             0.059626
H            -7.550000            -1.472243             0.085562
C            -4.900000            -6.062178             0.093449
C            -3.500000            -6.062178             0.010800
C            -2.800000            -7.274613             0.088600
C            -1.400000            -7.274613             0.086663
C            -0.700000            -8.487049             0.086304
C             0.700000            -8.487049             0.066550
C             1.400000            -9.699485             0.085513
C             2.800000            -9.699485             0.022945
C             3.500000           -10.911920             0.016485
C             4.900000           -10.911920             0.019839
H             5.450000           -11.864548             0.046960
C            -9.100000            -3.637307             0.027416
C            -9.800000            -4.849742             0.090154
C            -9.100000            -6.062178             0.089927
C            -7.700000            -6.062178             0.047983
H            -9.650000            -2.684679             0.028819
C            -7.000000            -7.274613             0.090370
C            -5.600000            -7.274613             0.024709
C            -4.900000            -8.487049             0.018957
C            -3.500000            -8.487049             0.052374
C            -2.800000            -9.699485             0.022089
C            -1.400000            -9.699485             0.064454
C            -0.700000           -10.911920             0.036888
C             0.700000           -10.911920             0.011248
C             1.400000           -12.124356             0.049661
C             2.800000           -12.124356             0.059725
H             3.350000           -13.076984             0.048128
C           -11.200000            -4.849742             0.004296
C           -11.900000            -6.062178             0.010631
C           -11.200000            -7.274613             0.092077
C            -9.800000            -7.274613             0.064793
H           -11.750000            -3.897114             0.092200
H           -13.000000            -6.062178             0.049609
H           -11.750000            -8.227241             0.045116
C            -9.100000            -8.487049             0.078660
C            -7.700000            -8.487049             0.029793
H            -9.650000            -9.439677             0.099211
C            -7.000000            -9.699485             0.033526
C            -5.600000            -9.699485             0.037333
H            -7.550000           -10.652112             0.084256
C            -4.900000           -10.911920             0.064378
C            -3.500000           -10.911920             0.032110
H            -5.450000           -11.864548             0.060946
C            -2.800000           -12.124356             0.088381
C            -1.400000           -12.124356             0.093607
H            -3.350000           -13.076984             0.032157
C            -0.700000           -13.336791             0.021483
C             0.700000           -13.336791             0.024608
H            -1.250000           -14.289419             0.034943
H             1.250000           -14.289419             0.070093
