48
isomero_11_10
C             0.700000             1.212436             0.075287
C            -0.700000             1.212436             0.049672
C            -1.400000             0.000000             0.086513
C            -0.700000            -1.212436             0.006803
C             0.700000            -1.212436             0.096855
C             1.400000            -0.000000             0.009876
H             1.250000             2.165064             0.054698
H            -1.250000             2.165064             0.040297
H            -2.500000             0.000000             0.010704
H            -1.250000            -2.165064             0.072417
C             2.800000             0.000000             0.061368
C             1.400000            -2.424871             0.078297
C             2.800000            -2.424871             0.056662
C             3.500000            -1.212436             0.081132
H             3.350000             0.952628             0.057678
H             0.850000            -3.377499             0.094403
C             4.900000            -1.212436             0.087145
C             3.500000            -3.637307             0.050760
C             4.900000            -3.637307             0.078882
B             5.600000            -2.424871             0.047303
H             5.450000            -0.259808             0.082880
H             2.950000            -4.589935             0.032248
N             7.000000            -2.424871             0.097615
C             5.600000            -4.849742             0.027821
C             7.000000            -4.849742             0.007283
C             7.700000            -3.637307             0.075122
H             7.550000            -1.472243             0.083119
H             5.050000            -5.802370             0.092234
C             9.100000            -3.637307             0.032702
C             7.700000            -6.062178             0.080407
C             9.100000            -6.062178             0.053825
C             9.800000            -4.849742             0.046329
H             9.650000            -2.684679             0.082075
H             7.150000            -7.014806             0.095191
C            11.200000            -4.849742             0.007627
C             9.800000            -7.274613             0.070867
C            11.200000            -7.274613             0.023493
C            11.900000            -6.062178             0.039890
H            11.750000            -3.897114             0.026812
H             9.250000            -8.227241             0.083251
C            13.300000            -6.062178             0.099537
C            11.900000            -8.487049             0.064975
C            13.300000            -8.487049             0.070395
C            14.000000            -7.274613             0.093230
H            13.850000            -5.109550             0.068765
H            11.350000            -9.439677             0.056835
H            13.850000            -9.439677             0.038085
H            15.100000            -7.274613             0.063458
