48
isomero_4_8
C             0.700000             1.212436             0.014166
C            -0.700000             1.212436             0.043789
C            -1.400000             0.000000             0.035038
C            -0.700000            -1.212436             0.047850
N             0.700000            -1.212436             0.058740
B             1.400000            -0.000000             0.014581
H             1.250000             2.165064             0.090533
H            -1.250000             2.165064             0.064019
H            -2.500000             0.000000             0.016294
H            -1.250000            -2.165064             0.056591
C             2.800000             0.000000             0.093162
C             1.400000            -2.424871             0.078310
C             2.800000            -2.424871             0.068569
C             3.500000            -1.212436             0.046622
H             3.350000             0.952628             0.026032
H             0.850000            -3.377499             0.056927
C             4.900000            -1.212436             0.024877
C             3.500000            -3.637307             0.031930
C             4.900000            -3.637307             0.091080
C             5.600000            -2.424871             0.088522
H             5.450000            -0.259808             0.079459
H             2.950000            -4.589935             0.092581
C             7.000000            -2.424871             0.017884
C             5.600000            -4.849742             0.051754
C             7.000000            -4.849742             0.062701
C             7.700000            -3.637307             0.091318
H             7.550000            -1.472243             0.066397
H             5.050000            -5.802370             0.038919
C             9.100000            -3.637307             0.074001
C             7.700000            -6.062178             0.081763
C             9.100000            -6.062178             0.060034
C             9.800000            -4.849742             0.008500
H             9.650000            -2.684679             0.092236
H             7.150000            -7.014806             0.005360
C            11.200000            -4.849742             0.052702
C             9.800000            -7.274613             0.011885
C            11.200000            -7.274613             0.038014
C            11.900000            -6.062178             0.081283
H            11.750000            -3.897114             0.024410
H             9.250000            -8.227241             0.088442
C            13.300000            -6.062178             0.071265
C            11.900000            -8.487049             0.037815
C            13.300000            -8.487049             0.024892
C            14.000000            -7.274613             0.025285
H            13.850000            -5.109550             0.076724
H            11.350000            -9.439677             0.004986
H            13.850000            -9.439677             0.068529
H            15.100000            -7.274613             0.062028
