48
isomero_3_4
C             0.700000             1.212436             0.087494
C            -0.700000             1.212436             0.012100
C            -1.400000             0.000000             0.085635
C            -0.700000            -1.212436             0.089978
C             0.700000            -1.212436             0.021787
N             1.400000            -0.000000             0.007698
H             1.250000             2.165064             0.047422
H            -1.250000             2.165064             0.083503
H            -2.500000             0.000000             0.046939
H            -1.250000            -2.165064             0.041377
B             2.800000             0.000000             0.050275
C             1.400000            -2.424871             0.012544
C             2.800000            -2.424871             0.013229
C             3.500000            -1.212436             0.087048
H             3.350000             0.952628             0.060295
H             0.850000            -3.377499             0.026530
C             4.900000            -1.212436             0.086480
C             3.500000            -3.637307             0.005811
C             4.900000            -3.637307             0.045775
C             5.600000            -2.424871             0.072221
H             5.450000            -0.259808             0.033900
H             2.950000            -4.589935             0.040122
C             7.000000            -2.424871             0.052698
C             5.600000            -4.849742             0.089424
C             7.000000            -4.849742             0.077836
C             7.700000            -3.637307             0.006937
H             7.550000            -1.472243             0.027878
H             5.050000            -5.802370             0.037937
C             9.100000            -3.637307             0.086467
C             7.700000            -6.062178             0.041996
C             9.100000            -6.062178             0.023988
C             9.800000            -4.849742             0.059765
H             9.650000            -2.684679             0.047940
H             7.150000            -7.014806             0.089855
C            11.200000            -4.849742             0.093471
C             9.800000            -7.274613             0.081789
C            11.200000            -7.274613             0.070891
C            11.900000            -6.062178             0.074322
H            11.750000            -3.897114             0.089971
H             9.250000            -8.227241             0.006524
C            13.300000            -6.062178             0.033591
C            11.900000            -8.487049             0.000434
C            13.300000            -8.487049             0.082810
C            14.000000            -7.274613             0.050744
H            13.850000            -5.109550             0.036616
H            11.350000            -9.439677             0.022664
H            13.850000            -9.439677             0.053483
H            15.100000            -7.274613             0.028948
