48
isomero_1_2
B             0.700000             1.212436             0.050780
N            -0.700000             1.212436             0.085666
C            -1.400000             0.000000             0.038431
C            -0.700000            -1.212436             0.069569
C             0.700000            -1.212436             0.062790
C             1.400000            -0.000000             0.045039
H             1.250000             2.165064             0.047362
H            -1.250000             2.165064             0.094971
H            -2.500000             0.000000             0.008350
H            -1.250000            -2.165064             0.027983
C             2.800000             0.000000             0.044701
C             1.400000            -2.424871             0.058757
C             2.800000            -2.424871             0.087763
C             3.500000            -1.212436             0.046910
H             3.350000             0.952628             0.043742
H             0.850000            -3.377499             0.074618
C             4.900000            -1.212436             0.046791
C             3.500000            -3.637307             0.086083
C             4.900000            -3.637307             0.046651
C             5.600000            -2.424871             0.049810
H             5.450000            -0.259808             0.048743
H             2.950000            -4.589935             0.022947
C             7.000000            -2.424871             0.008555
C             5.600000            -4.849742             0.006738
C             7.000000            -4.849742             0.088839
C             7.700000            -3.637307             0.023317
H             7.550000            -1.472243             0.086160
H             5.050000            -5.802370             0.071174
C             9.100000            -3.637307             0.087281
C             7.700000            -6.062178             0.093800
C             9.100000            -6.062178             0.013969
C             9.800000            -4.849742             0.039390
H             9.650000            -2.684679             0.098056
H             7.150000            -7.014806             0.064479
C            11.200000            -4.849742             0.089641
C             9.800000            -7.274613             0.048223
C            11.200000            -7.274613             0.001409
C            11.900000            -6.062178             0.062288
H            11.750000            -3.897114             0.023110
H             9.250000            -8.227241             0.052743
C            13.300000            -6.062178             0.072499
C            11.900000            -8.487049             0.060742
C            13.300000            -8.487049             0.058837
C            14.000000            -7.274613             0.043343
H            13.850000            -5.109550             0.024417
H            11.350000            -9.439677             0.042896
H            13.850000            -9.439677             0.001018
H            15.100000            -7.274613             0.060882
