48
isomero_6_7
C             0.700000             1.212436             0.074668
C            -0.700000             1.212436             0.097726
C            -1.400000             0.000000             0.038391
C            -0.700000            -1.212436             0.026021
C             0.700000            -1.212436             0.087747
C             1.400000            -0.000000             0.080610
H             1.250000             2.165064             0.046112
H            -1.250000             2.165064             0.009096
H            -2.500000             0.000000             0.056427
H            -1.250000            -2.165064             0.018738
C             2.800000             0.000000             0.053169
C             1.400000            -2.424871             0.035503
C             2.800000            -2.424871             0.031478
N             3.500000            -1.212436             0.072674
H             3.350000             0.952628             0.051577
H             0.850000            -3.377499             0.079064
B             4.900000            -1.212436             0.020449
C             3.500000            -3.637307             0.067811
C             4.900000            -3.637307             0.005249
C             5.600000            -2.424871             0.080117
H             5.450000            -0.259808             0.067857
H             2.950000            -4.589935             0.094601
C             7.000000            -2.424871             0.009156
C             5.600000            -4.849742             0.090844
C             7.000000            -4.849742             0.050995
C             7.700000            -3.637307             0.061490
H             7.550000            -1.472243             0.031607
H             5.050000            -5.802370             0.007749
C             9.100000            -3.637307             0.085061
C             7.700000            -6.062178             0.014453
C             9.100000            -6.062178             0.037049
C             9.800000            -4.849742             0.062239
H             9.650000            -2.684679             0.099755
H             7.150000            -7.014806             0.051734
C            11.200000            -4.849742             0.099051
C             9.800000            -7.274613             0.022653
C            11.200000            -7.274613             0.039801
C            11.900000            -6.062178             0.069657
H            11.750000            -3.897114             0.006464
H             9.250000            -8.227241             0.074766
C            13.300000            -6.062178             0.042040
C            11.900000            -8.487049             0.081132
C            13.300000            -8.487049             0.037961
C            14.000000            -7.274613             0.031907
H            13.850000            -5.109550             0.098605
H            11.350000            -9.439677             0.071818
H            13.850000            -9.439677             0.041318
H            15.100000            -7.274613             0.009863
