48
isomero_11_16
C             0.700000             1.212436             0.036323
C            -0.700000             1.212436             0.040762
C            -1.400000             0.000000             0.036870
C            -0.700000            -1.212436             0.046840
C             0.700000            -1.212436             0.050341
C             1.400000            -0.000000             0.091054
H             1.250000             2.165064             0.020643
H            -1.250000             2.165064             0.033860
H            -2.500000             0.000000             0.057413
H            -1.250000            -2.165064             0.048693
C             2.800000             0.000000             0.026222
C             1.400000            -2.424871             0.057959
C             2.800000            -2.424871             0.087833
C             3.500000            -1.212436             0.006095
H             3.350000             0.952628             0.044088
H             0.850000            -3.377499             0.008426
C             4.900000            -1.212436             0.056324
C             3.500000            -3.637307             0.053931
N             4.900000            -3.637307             0.076806
B             5.600000            -2.424871             0.023309
H             5.450000            -0.259808             0.058736
H             2.950000            -4.589935             0.045897
C             7.000000            -2.424871             0.086098
C             5.600000            -4.849742             0.066084
C             7.000000            -4.849742             0.035388
C             7.700000            -3.637307             0.034719
H             7.550000            -1.472243             0.025372
H             5.050000            -5.802370             0.095253
C             9.100000            -3.637307             0.029820
C             7.700000            -6.062178             0.015841
C             9.100000            -6.062178             0.036130
C             9.800000            -4.849742             0.074163
H             9.650000            -2.684679             0.070590
H             7.150000            -7.014806             0.070089
C            11.200000            -4.849742             0.000623
C             9.800000            -7.274613             0.037435
C            11.200000            -7.274613             0.090150
C            11.900000            -6.062178             0.031834
H            11.750000            -3.897114             0.059708
H             9.250000            -8.227241             0.029780
C            13.300000            -6.062178             0.012501
C            11.900000            -8.487049             0.038836
C            13.300000            -8.487049             0.081769
C            14.000000            -7.274613             0.098118
H            13.850000            -5.109550             0.086199
H            11.350000            -9.439677             0.008382
H            13.850000            -9.439677             0.033771
H            15.100000            -7.274613             0.023613
