48
isomero_3_7
C             0.700000             1.212436             0.006837
C            -0.700000             1.212436             0.008497
C            -1.400000             0.000000             0.006834
C            -0.700000            -1.212436             0.040982
C             0.700000            -1.212436             0.012338
C             1.400000            -0.000000             0.044302
H             1.250000             2.165064             0.089894
H            -1.250000             2.165064             0.035364
H            -2.500000             0.000000             0.012018
H            -1.250000            -2.165064             0.056911
B             2.800000             0.000000             0.087503
C             1.400000            -2.424871             0.034857
C             2.800000            -2.424871             0.004192
N             3.500000            -1.212436             0.014234
H             3.350000             0.952628             0.007659
H             0.850000            -3.377499             0.074053
C             4.900000            -1.212436             0.045653
C             3.500000            -3.637307             0.066825
C             4.900000            -3.637307             0.069925
C             5.600000            -2.424871             0.057136
H             5.450000            -0.259808             0.062869
H             2.950000            -4.589935             0.087776
C             7.000000            -2.424871             0.066235
C             5.600000            -4.849742             0.087541
C             7.000000            -4.849742             0.046752
C             7.700000            -3.637307             0.014134
H             7.550000            -1.472243             0.006813
H             5.050000            -5.802370             0.071424
C             9.100000            -3.637307             0.030799
C             7.700000            -6.062178             0.067116
C             9.100000            -6.062178             0.065242
C             9.800000            -4.849742             0.053105
H             9.650000            -2.684679             0.071511
H             7.150000            -7.014806             0.050481
C            11.200000            -4.849742             0.048800
C             9.800000            -7.274613             0.049784
C            11.200000            -7.274613             0.093598
C            11.900000            -6.062178             0.038928
H            11.750000            -3.897114             0.011715
H             9.250000            -8.227241             0.024042
C            13.300000            -6.062178             0.068491
C            11.900000            -8.487049             0.083925
C            13.300000            -8.487049             0.097014
C            14.000000            -7.274613             0.021517
H            13.850000            -5.109550             0.076034
H            11.350000            -9.439677             0.058410
H            13.850000            -9.439677             0.040295
H            15.100000            -7.274613             0.051004
