48
isomero_11_6
C             0.700000             1.212436             0.057425
C            -0.700000             1.212436             0.041280
C            -1.400000             0.000000             0.001476
C            -0.700000            -1.212436             0.070276
C             0.700000            -1.212436             0.050675
C             1.400000            -0.000000             0.038127
H             1.250000             2.165064             0.006493
H            -1.250000             2.165064             0.035858
H            -2.500000             0.000000             0.023425
H            -1.250000            -2.165064             0.020350
C             2.800000             0.000000             0.081378
C             1.400000            -2.424871             0.039343
C             2.800000            -2.424871             0.005358
C             3.500000            -1.212436             0.037505
H             3.350000             0.952628             0.077499
H             0.850000            -3.377499             0.016530
N             4.900000            -1.212436             0.091222
C             3.500000            -3.637307             0.031921
C             4.900000            -3.637307             0.032978
B             5.600000            -2.424871             0.020424
H             5.450000            -0.259808             0.076721
H             2.950000            -4.589935             0.006997
C             7.000000            -2.424871             0.095003
C             5.600000            -4.849742             0.015821
C             7.000000            -4.849742             0.028645
C             7.700000            -3.637307             0.068713
H             7.550000            -1.472243             0.014115
H             5.050000            -5.802370             0.051209
C             9.100000            -3.637307             0.072133
C             7.700000            -6.062178             0.092885
C             9.100000            -6.062178             0.073210
C             9.800000            -4.849742             0.074985
H             9.650000            -2.684679             0.040732
H             7.150000            -7.014806             0.023949
C            11.200000            -4.849742             0.052085
C             9.800000            -7.274613             0.021908
C            11.200000            -7.274613             0.084239
C            11.900000            -6.062178             0.066293
H            11.750000            -3.897114             0.081624
H             9.250000            -8.227241             0.079388
C            13.300000            -6.062178             0.046911
C            11.900000            -8.487049             0.030952
C            13.300000            -8.487049             0.068758
C            14.000000            -7.274613             0.098685
H            13.850000            -5.109550             0.076993
H            11.350000            -9.439677             0.082958
H            13.850000            -9.439677             0.070608
H            15.100000            -7.274613             0.059534
