48
isomero_6_11
C             0.700000             1.212436             0.073456
C            -0.700000             1.212436             0.063731
C            -1.400000             0.000000             0.007384
C            -0.700000            -1.212436             0.012051
C             0.700000            -1.212436             0.098160
C             1.400000            -0.000000             0.049680
H             1.250000             2.165064             0.002241
H            -1.250000             2.165064             0.005383
H            -2.500000             0.000000             0.014087
H            -1.250000            -2.165064             0.089347
C             2.800000             0.000000             0.046582
C             1.400000            -2.424871             0.056086
C             2.800000            -2.424871             0.049446
C             3.500000            -1.212436             0.006779
H             3.350000             0.952628             0.089765
H             0.850000            -3.377499             0.028857
B             4.900000            -1.212436             0.026905
C             3.500000            -3.637307             0.059419
C             4.900000            -3.637307             0.047588
N             5.600000            -2.424871             0.036831
H             5.450000            -0.259808             0.065561
H             2.950000            -4.589935             0.093820
C             7.000000            -2.424871             0.062043
C             5.600000            -4.849742             0.028284
C             7.000000            -4.849742             0.020518
C             7.700000            -3.637307             0.043913
H             7.550000            -1.472243             0.002725
H             5.050000            -5.802370             0.087618
C             9.100000            -3.637307             0.061009
C             7.700000            -6.062178             0.020359
C             9.100000            -6.062178             0.051992
C             9.800000            -4.849742             0.005382
H             9.650000            -2.684679             0.086219
H             7.150000            -7.014806             0.044293
C            11.200000            -4.849742             0.054801
C             9.800000            -7.274613             0.056686
C            11.200000            -7.274613             0.068039
C            11.900000            -6.062178             0.037138
H            11.750000            -3.897114             0.007823
H             9.250000            -8.227241             0.045635
C            13.300000            -6.062178             0.004784
C            11.900000            -8.487049             0.073826
C            13.300000            -8.487049             0.003800
C            14.000000            -7.274613             0.095424
H            13.850000            -5.109550             0.074237
H            11.350000            -9.439677             0.093745
H            13.850000            -9.439677             0.051336
H            15.100000            -7.274613             0.024090
