138
isomero_46_33
C             0.700000             1.212436             0.082273
C            -0.700000             1.212436             0.055404
C            -1.400000             0.000000             0.076229
C            -0.700000            -1.212436             0.045399
C             0.700000            -1.212436             0.076040
C             1.400000            -0.000000             0.025527
H             1.250000             2.165064             0.079322
H            -1.250000             2.165064             0.044776
C             2.800000             0.000000             0.071096
C             1.400000            -2.424871             0.036350
C             2.800000            -2.424871             0.009580
C             3.500000            -1.212436             0.007203
H             3.350000             0.952628             0.004728
C             4.900000            -1.212436             0.075438
C             3.500000            -3.637307             0.045313
C             4.900000            -3.637307             0.068586
C             5.600000            -2.424871             0.068188
H             5.450000            -0.259808             0.078733
C             7.000000            -2.424871             0.053468
C             5.600000            -4.849742             0.047385
N             7.000000            -4.849742             0.077838
C             7.700000            -3.637307             0.010015
H             7.550000            -1.472243             0.052715
C             9.100000            -3.637307             0.041679
B             7.700000            -6.062178             0.015960
C             9.100000            -6.062178             0.048459
C             9.800000            -4.849742             0.078148
H             9.650000            -2.684679             0.087192
C            11.200000            -4.849742             0.063375
C             9.800000            -7.274613             0.091492
C            11.200000            -7.274613             0.098177
C            11.900000            -6.062178             0.028928
H            11.750000            -3.897114             0.050214
C            13.300000            -6.062178             0.028667
C            11.900000            -8.487049             0.011139
C            13.300000            -8.487049             0.048254
C            14.000000            -7.274613             0.055514
H            13.850000            -5.109550             0.088352
H            13.850000            -9.439677             0.080556
H            15.100000            -7.274613             0.092161
C            -2.800000             0.000000             0.041416
C            -3.500000            -1.212436             0.015035
C            -2.800000            -2.424871             0.078055
C            -1.400000            -2.424871             0.091466
H            -3.350000             0.952628             0.080186
C            -0.700000            -3.637307             0.057140
C             0.700000            -3.637307             0.030471
C             1.400000            -4.849742             0.039267
C             2.800000            -4.849742             0.069845
C             3.500000            -6.062178             0.049363
C             4.900000            -6.062178             0.078761
C             5.600000            -7.274613             0.063160
C             7.000000            -7.274613             0.062886
C             7.700000            -8.487049             0.095393
C             9.100000            -8.487049             0.001134
C             9.800000            -9.699485             0.053972
C            11.200000            -9.699485             0.083837
H            11.750000           -10.652112             0.065213
C            -4.900000            -1.212436             0.046086
C            -5.600000            -2.424871             0.093841
C            -4.900000            -3.637307             0.044670
C            -3.500000            -3.637307             0.042080
H            -5.450000            -0.259808             0.036513
C            -2.800000            -4.849742             0.084850
C            -1.400000            -4.849742             0.058264
C            -0.700000            -6.062178             0.081531
C             0.700000            -6.062178             0.034378
C             1.400000            -7.274613             0.056650
C             2.800000            -7.274613             0.059239
C             3.500000            -8.487049             0.009659
C             4.900000            -8.487049             0.002745
C             5.600000            -9.699485             0.043127
C             7.000000            -9.699485             0.018859
C             7.700000           -10.911920             0.031444
C             9.100000           -10.911920             0.062834
H             9.650000           -11.864548             0.046414
C            -7.000000            -2.424871             0.082116
C            -7.700000            -3.637307             0.039759
C            -7.000000            -4.849742             0.021755
C            -5.600000            -4.849742             0.079325
H            -7.550000            -1.472243             0.054738
C            -4.900000            -6.062178             0.060407
C            -3.500000            -6.062178             0.013540
C            -2.800000            -7.274613             0.049416
C            -1.400000            -7.274613             0.006845
C            -0.700000            -8.487049             0.072234
C             0.700000            -8.487049             0.073158
C             1.400000            -9.699485             0.077721
C             2.800000            -9.699485             0.072206
C             3.500000           -10.911920             0.090289
C             4.900000           -10.911920             0.058169
C             5.600000           -12.124356             0.059664
C             7.000000           -12.124356             0.058884
H             7.550000           -13.076984             0.045938
C            -9.100000            -3.637307             0.066559
C            -9.800000            -4.849742             0.019294
C            -9.100000            -6.062178             0.034542
C            -7.700000            -6.062178             0.095344
H            -9.650000            -2.684679             0.001863
C            -7.000000            -7.274613             0.057165
C            -5.600000            -7.274613             0.068513
C            -4.900000            -8.487049             0.065292
C            -3.500000            -8.487049             0.038972
C            -2.800000            -9.699485             0.015860
C            -1.400000            -9.699485             0.067806
C            -0.700000           -10.911920             0.069998
C             0.700000           -10.911920             0.051058
C             1.400000           -12.124356             0.060444
C             2.800000           -12.124356             0.008800
C             3.500000           -13.336791             0.087481
C             4.900000           -13.336791             0.077831
H             5.450000           -14.289419             0.026868
C           -11.200000            -4.849742             0.068155
C           -11.900000            -6.062178             0.060378
C           -11.200000            -7.274613             0.004448
C            -9.800000            -7.274613             0.084334
H           -11.750000            -3.897114             0.020617
H           -13.000000            -6.062178             0.097569
H           -11.750000            -8.227241             0.052795
C            -9.100000            -8.487049             0.089605
C            -7.700000            -8.487049             0.044431
H            -9.650000            -9.439677             0.015592
C            -7.000000            -9.699485             0.045511
C            -5.600000            -9.699485             0.008660
H            -7.550000           -10.652112             0.060086
C            -4.900000           -10.911920             0.034538
C            -3.500000           -10.911920             0.053544
H            -5.450000           -11.864548             0.045223
C            -2.800000           -12.124356             0.009226
C            -1.400000           -12.124356             0.084785
H            -3.350000           -13.076984             0.054996
C            -0.700000           -13.336791             0.038334
C             0.700000           -13.336791             0.079990
H            -1.250000           -14.289419             0.044499
C             1.400000           -14.549227             0.001366
C             2.800000           -14.549227             0.006746
H             0.850000           -15.501855             0.002887
H             3.350000           -15.501855             0.064121
