138
isomero_19_28
C             0.700000             1.212436             0.079189
C            -0.700000             1.212436             0.018922
C            -1.400000             0.000000             0.042733
C            -0.700000            -1.212436             0.031275
C             0.700000            -1.212436             0.010111
C             1.400000            -0.000000             0.032365
H             1.250000             2.165064             0.084995
H            -1.250000             2.165064             0.056975
C             2.800000             0.000000             0.030682
C             1.400000            -2.424871             0.030421
C             2.800000            -2.424871             0.071336
C             3.500000            -1.212436             0.063212
H             3.350000             0.952628             0.014076
C             4.900000            -1.212436             0.015822
C             3.500000            -3.637307             0.046162
C             4.900000            -3.637307             0.095836
C             5.600000            -2.424871             0.098221
H             5.450000            -0.259808             0.049743
C             7.000000            -2.424871             0.053869
C             5.600000            -4.849742             0.005472
C             7.000000            -4.849742             0.078325
C             7.700000            -3.637307             0.015571
H             7.550000            -1.472243             0.083947
C             9.100000            -3.637307             0.062113
C             7.700000            -6.062178             0.094747
C             9.100000            -6.062178             0.080609
C             9.800000            -4.849742             0.051752
H             9.650000            -2.684679             0.034888
C            11.200000            -4.849742             0.086544
C             9.800000            -7.274613             0.040231
C            11.200000            -7.274613             0.088797
C            11.900000            -6.062178             0.025734
H            11.750000            -3.897114             0.045180
C            13.300000            -6.062178             0.041021
C            11.900000            -8.487049             0.084499
C            13.300000            -8.487049             0.092223
C            14.000000            -7.274613             0.006653
H            13.850000            -5.109550             0.039748
H            13.850000            -9.439677             0.092328
H            15.100000            -7.274613             0.002229
C            -2.800000             0.000000             0.036224
C            -3.500000            -1.212436             0.024526
C            -2.800000            -2.424871             0.019908
C            -1.400000            -2.424871             0.046142
H            -3.350000             0.952628             0.025876
C            -0.700000            -3.637307             0.015601
C             0.700000            -3.637307             0.035366
C             1.400000            -4.849742             0.052776
C             2.800000            -4.849742             0.033178
C             3.500000            -6.062178             0.053621
C             4.900000            -6.062178             0.023624
C             5.600000            -7.274613             0.061087
C             7.000000            -7.274613             0.092222
C             7.700000            -8.487049             0.018524
C             9.100000            -8.487049             0.066667
C             9.800000            -9.699485             0.087288
C            11.200000            -9.699485             0.014839
H            11.750000           -10.652112             0.041621
C            -4.900000            -1.212436             0.027056
B            -5.600000            -2.424871             0.032476
N            -4.900000            -3.637307             0.034921
C            -3.500000            -3.637307             0.088456
H            -5.450000            -0.259808             0.090432
C            -2.800000            -4.849742             0.029401
C            -1.400000            -4.849742             0.031320
C            -0.700000            -6.062178             0.038223
C             0.700000            -6.062178             0.084738
C             1.400000            -7.274613             0.093091
C             2.800000            -7.274613             0.064706
C             3.500000            -8.487049             0.081392
C             4.900000            -8.487049             0.008691
C             5.600000            -9.699485             0.017481
C             7.000000            -9.699485             0.088809
C             7.700000           -10.911920             0.034292
C             9.100000           -10.911920             0.095503
H             9.650000           -11.864548             0.062369
C            -7.000000            -2.424871             0.012232
C            -7.700000            -3.637307             0.002473
C            -7.000000            -4.849742             0.070822
C            -5.600000            -4.849742             0.015034
H            -7.550000            -1.472243             0.075837
C            -4.900000            -6.062178             0.030112
C            -3.500000            -6.062178             0.041705
C            -2.800000            -7.274613             0.053330
C            -1.400000            -7.274613             0.087136
C            -0.700000            -8.487049             0.036469
C             0.700000            -8.487049             0.032591
C             1.400000            -9.699485             0.054227
C             2.800000            -9.699485             0.061522
C             3.500000           -10.911920             0.054604
C             4.900000           -10.911920             0.044131
C             5.600000           -12.124356             0.061013
C             7.000000           -12.124356             0.069631
H             7.550000           -13.076984             0.065633
C            -9.100000            -3.637307             0.031855
C            -9.800000            -4.849742             0.076763
C            -9.100000            -6.062178             0.081899
C            -7.700000            -6.062178             0.077399
H            -9.650000            -2.684679             0.093003
C            -7.000000            -7.274613             0.062693
C            -5.600000            -7.274613             0.024345
C            -4.900000            -8.487049             0.015960
C            -3.500000            -8.487049             0.004969
C            -2.800000            -9.699485             0.023400
C            -1.400000            -9.699485             0.076648
C            -0.700000           -10.911920             0.064669
C             0.700000           -10.911920             0.000772
C             1.400000           -12.124356             0.018217
C             2.800000           -12.124356             0.047117
C             3.500000           -13.336791             0.076121
C             4.900000           -13.336791             0.080011
H             5.450000           -14.289419             0.084534
C           -11.200000            -4.849742             0.028661
C           -11.900000            -6.062178             0.003066
C           -11.200000            -7.274613             0.045801
C            -9.800000            -7.274613             0.039976
H           -11.750000            -3.897114             0.028302
H           -13.000000            -6.062178             0.052361
H           -11.750000            -8.227241             0.029418
C            -9.100000            -8.487049             0.015360
C            -7.700000            -8.487049             0.031212
H            -9.650000            -9.439677             0.093174
C            -7.000000            -9.699485             0.076663
C            -5.600000            -9.699485             0.010659
H            -7.550000           -10.652112             0.026418
C            -4.900000           -10.911920             0.059571
C            -3.500000           -10.911920             0.046498
H            -5.450000           -11.864548             0.044309
C            -2.800000           -12.124356             0.021957
C            -1.400000           -12.124356             0.083552
H            -3.350000           -13.076984             0.079726
C            -0.700000           -13.336791             0.002652
C             0.700000           -13.336791             0.053302
H            -1.250000           -14.289419             0.076708
C             1.400000           -14.549227             0.060644
C             2.800000           -14.549227             0.058959
H             0.850000           -15.501855             0.025918
H             3.350000           -15.501855             0.084469
