138
isomero_28_19
C             0.700000             1.212436             0.005498
C            -0.700000             1.212436             0.005835
C            -1.400000             0.000000             0.071716
C            -0.700000            -1.212436             0.087608
C             0.700000            -1.212436             0.086584
C             1.400000            -0.000000             0.033531
H             1.250000             2.165064             0.065361
H            -1.250000             2.165064             0.015774
C             2.800000             0.000000             0.069944
C             1.400000            -2.424871             0.020797
C             2.800000            -2.424871             0.028999
C             3.500000            -1.212436             0.058519
H             3.350000             0.952628             0.047645
C             4.900000            -1.212436             0.007857
C             3.500000            -3.637307             0.073458
C             4.900000            -3.637307             0.095888
C             5.600000            -2.424871             0.054168
H             5.450000            -0.259808             0.025271
C             7.000000            -2.424871             0.094483
C             5.600000            -4.849742             0.025667
C             7.000000            -4.849742             0.016377
C             7.700000            -3.637307             0.060786
H             7.550000            -1.472243             0.095085
C             9.100000            -3.637307             0.040263
C             7.700000            -6.062178             0.011719
C             9.100000            -6.062178             0.083565
C             9.800000            -4.849742             0.067158
H             9.650000            -2.684679             0.032894
C            11.200000            -4.849742             0.081140
C             9.800000            -7.274613             0.051054
C            11.200000            -7.274613             0.027592
C            11.900000            -6.062178             0.076767
H            11.750000            -3.897114             0.092162
C            13.300000            -6.062178             0.003940
C            11.900000            -8.487049             0.035682
C            13.300000            -8.487049             0.065279
C            14.000000            -7.274613             0.015914
H            13.850000            -5.109550             0.009021
H            13.850000            -9.439677             0.023591
H            15.100000            -7.274613             0.072000
C            -2.800000             0.000000             0.025954
C            -3.500000            -1.212436             0.094259
C            -2.800000            -2.424871             0.095813
C            -1.400000            -2.424871             0.018613
H            -3.350000             0.952628             0.016748
C            -0.700000            -3.637307             0.009022
C             0.700000            -3.637307             0.068751
C             1.400000            -4.849742             0.096773
C             2.800000            -4.849742             0.068427
C             3.500000            -6.062178             0.097020
C             4.900000            -6.062178             0.032673
C             5.600000            -7.274613             0.058403
C             7.000000            -7.274613             0.019739
C             7.700000            -8.487049             0.090912
C             9.100000            -8.487049             0.049232
C             9.800000            -9.699485             0.004028
C            11.200000            -9.699485             0.020676
H            11.750000           -10.652112             0.013120
C            -4.900000            -1.212436             0.048727
N            -5.600000            -2.424871             0.007435
B            -4.900000            -3.637307             0.014952
C            -3.500000            -3.637307             0.023261
H            -5.450000            -0.259808             0.064289
C            -2.800000            -4.849742             0.019424
C            -1.400000            -4.849742             0.072782
C            -0.700000            -6.062178             0.055747
C             0.700000            -6.062178             0.032191
C             1.400000            -7.274613             0.062104
C             2.800000            -7.274613             0.074858
C             3.500000            -8.487049             0.074323
C             4.900000            -8.487049             0.006319
C             5.600000            -9.699485             0.065231
C             7.000000            -9.699485             0.070412
C             7.700000           -10.911920             0.072661
C             9.100000           -10.911920             0.089607
H             9.650000           -11.864548             0.077761
C            -7.000000            -2.424871             0.053732
C            -7.700000            -3.637307             0.051462
C            -7.000000            -4.849742             0.098028
C            -5.600000            -4.849742             0.031615
H            -7.550000            -1.472243             0.076528
C            -4.900000            -6.062178             0.036219
C            -3.500000            -6.062178             0.077441
C            -2.800000            -7.274613             0.083743
C            -1.400000            -7.274613             0.093385
C            -0.700000            -8.487049             0.088088
C             0.700000            -8.487049             0.031208
C             1.400000            -9.699485             0.065498
C             2.800000            -9.699485             0.034107
C             3.500000           -10.911920             0.064672
C             4.900000           -10.911920             0.049969
C             5.600000           -12.124356             0.066420
C             7.000000           -12.124356             0.003998
H             7.550000           -13.076984             0.014261
C            -9.100000            -3.637307             0.089116
C            -9.800000            -4.849742             0.089782
C            -9.100000            -6.062178             0.076153
C            -7.700000            -6.062178             0.060636
H            -9.650000            -2.684679             0.099540
C            -7.000000            -7.274613             0.063359
C            -5.600000            -7.274613             0.081763
C            -4.900000            -8.487049             0.088674
C            -3.500000            -8.487049             0.057450
C            -2.800000            -9.699485             0.015281
C            -1.400000            -9.699485             0.068769
C            -0.700000           -10.911920             0.067865
C             0.700000           -10.911920             0.053324
C             1.400000           -12.124356             0.095185
C             2.800000           -12.124356             0.094701
C             3.500000           -13.336791             0.033560
C             4.900000           -13.336791             0.086411
H             5.450000           -14.289419             0.063215
C           -11.200000            -4.849742             0.046191
C           -11.900000            -6.062178             0.031194
C           -11.200000            -7.274613             0.000173
C            -9.800000            -7.274613             0.076904
H           -11.750000            -3.897114             0.072077
H           -13.000000            -6.062178             0.091878
H           -11.750000            -8.227241             0.078917
C            -9.100000            -8.487049             0.032173
C            -7.700000            -8.487049             0.086085
H            -9.650000            -9.439677             0.099872
C            -7.000000            -9.699485             0.039239
C            -5.600000            -9.699485             0.058759
H            -7.550000           -10.652112             0.089441
C            -4.900000           -10.911920             0.013731
C            -3.500000           -10.911920             0.016363
H            -5.450000           -11.864548             0.069703
C            -2.800000           -12.124356             0.077412
C            -1.400000           -12.124356             0.017803
H            -3.350000           -13.076984             0.066224
C            -0.700000           -13.336791             0.046449
C             0.700000           -13.336791             0.045885
H            -1.250000           -14.289419             0.058626
C             1.400000           -14.549227             0.076507
C             2.800000           -14.549227             0.069915
H             0.850000           -15.501855             0.064088
H             3.350000           -15.501855             0.033387
