138
isomero_41_54
C             0.700000             1.212436             0.016868
C            -0.700000             1.212436             0.050103
C            -1.400000             0.000000             0.005917
C            -0.700000            -1.212436             0.094466
C             0.700000            -1.212436             0.036131
C             1.400000            -0.000000             0.072223
H             1.250000             2.165064             0.046639
H            -1.250000             2.165064             0.054374
C             2.800000             0.000000             0.077022
C             1.400000            -2.424871             0.087411
C             2.800000            -2.424871             0.082495
C             3.500000            -1.212436             0.019684
H             3.350000             0.952628             0.046540
C             4.900000            -1.212436             0.035138
C             3.500000            -3.637307             0.016826
C             4.900000            -3.637307             0.052304
C             5.600000            -2.424871             0.015719
H             5.450000            -0.259808             0.030440
C             7.000000            -2.424871             0.021025
C             5.600000            -4.849742             0.007803
C             7.000000            -4.849742             0.039022
C             7.700000            -3.637307             0.040594
H             7.550000            -1.472243             0.056965
C             9.100000            -3.637307             0.041229
C             7.700000            -6.062178             0.021690
C             9.100000            -6.062178             0.073324
C             9.800000            -4.849742             0.034832
H             9.650000            -2.684679             0.085995
C            11.200000            -4.849742             0.050788
C             9.800000            -7.274613             0.016993
C            11.200000            -7.274613             0.079412
C            11.900000            -6.062178             0.053550
H            11.750000            -3.897114             0.086081
C            13.300000            -6.062178             0.072675
C            11.900000            -8.487049             0.098361
C            13.300000            -8.487049             0.091769
C            14.000000            -7.274613             0.055120
H            13.850000            -5.109550             0.078313
H            13.850000            -9.439677             0.051042
H            15.100000            -7.274613             0.019181
C            -2.800000             0.000000             0.059516
C            -3.500000            -1.212436             0.053637
C            -2.800000            -2.424871             0.015809
C            -1.400000            -2.424871             0.037340
H            -3.350000             0.952628             0.054762
C            -0.700000            -3.637307             0.054075
C             0.700000            -3.637307             0.036878
C             1.400000            -4.849742             0.026368
C             2.800000            -4.849742             0.094276
C             3.500000            -6.062178             0.025614
C             4.900000            -6.062178             0.097654
C             5.600000            -7.274613             0.051233
C             7.000000            -7.274613             0.018233
C             7.700000            -8.487049             0.043514
C             9.100000            -8.487049             0.035065
C             9.800000            -9.699485             0.001645
C            11.200000            -9.699485             0.073076
H            11.750000           -10.652112             0.006370
C            -4.900000            -1.212436             0.038121
C            -5.600000            -2.424871             0.099495
C            -4.900000            -3.637307             0.031640
C            -3.500000            -3.637307             0.016517
H            -5.450000            -0.259808             0.023191
C            -2.800000            -4.849742             0.099003
C            -1.400000            -4.849742             0.028189
C            -0.700000            -6.062178             0.004040
C             0.700000            -6.062178             0.043694
C             1.400000            -7.274613             0.015086
C             2.800000            -7.274613             0.050322
C             3.500000            -8.487049             0.048276
C             4.900000            -8.487049             0.023809
C             5.600000            -9.699485             0.051732
C             7.000000            -9.699485             0.020913
C             7.700000           -10.911920             0.074057
C             9.100000           -10.911920             0.033323
H             9.650000           -11.864548             0.002765
C            -7.000000            -2.424871             0.022476
C            -7.700000            -3.637307             0.026230
C            -7.000000            -4.849742             0.089540
C            -5.600000            -4.849742             0.045576
H            -7.550000            -1.472243             0.028975
C            -4.900000            -6.062178             0.078568
C            -3.500000            -6.062178             0.008381
C            -2.800000            -7.274613             0.029073
C            -1.400000            -7.274613             0.000912
C            -0.700000            -8.487049             0.012429
C             0.700000            -8.487049             0.093844
C             1.400000            -9.699485             0.031983
C             2.800000            -9.699485             0.041328
C             3.500000           -10.911920             0.041120
C             4.900000           -10.911920             0.040951
C             5.600000           -12.124356             0.076937
C             7.000000           -12.124356             0.003919
H             7.550000           -13.076984             0.024962
C            -9.100000            -3.637307             0.015357
B            -9.800000            -4.849742             0.082892
N            -9.100000            -6.062178             0.042530
C            -7.700000            -6.062178             0.084785
H            -9.650000            -2.684679             0.087731
C            -7.000000            -7.274613             0.050071
C            -5.600000            -7.274613             0.014840
C            -4.900000            -8.487049             0.031620
C            -3.500000            -8.487049             0.073813
C            -2.800000            -9.699485             0.031786
C            -1.400000            -9.699485             0.091635
C            -0.700000           -10.911920             0.053386
C             0.700000           -10.911920             0.068659
C             1.400000           -12.124356             0.053521
C             2.800000           -12.124356             0.010857
C             3.500000           -13.336791             0.015477
C             4.900000           -13.336791             0.057741
H             5.450000           -14.289419             0.099392
C           -11.200000            -4.849742             0.022803
C           -11.900000            -6.062178             0.068876
C           -11.200000            -7.274613             0.046262
C            -9.800000            -7.274613             0.076135
H           -11.750000            -3.897114             0.040854
H           -13.000000            -6.062178             0.031491
H           -11.750000            -8.227241             0.064821
C            -9.100000            -8.487049             0.054889
C            -7.700000            -8.487049             0.053476
H            -9.650000            -9.439677             0.058808
C            -7.000000            -9.699485             0.094212
C            -5.600000            -9.699485             0.075511
H            -7.550000           -10.652112             0.035605
C            -4.900000           -10.911920             0.062203
C            -3.500000           -10.911920             0.039867
H            -5.450000           -11.864548             0.039512
C            -2.800000           -12.124356             0.045973
C            -1.400000           -12.124356             0.049401
H            -3.350000           -13.076984             0.060642
C            -0.700000           -13.336791             0.054383
C             0.700000           -13.336791             0.042113
H            -1.250000           -14.289419             0.075408
C             1.400000           -14.549227             0.033948
C             2.800000           -14.549227             0.045978
H             0.850000           -15.501855             0.049108
H             3.350000           -15.501855             0.036700
