138
isomero_14_7
C             0.700000             1.212436             0.098891
C            -0.700000             1.212436             0.059953
C            -1.400000             0.000000             0.072266
C            -0.700000            -1.212436             0.074314
C             0.700000            -1.212436             0.021333
C             1.400000            -0.000000             0.096755
H             1.250000             2.165064             0.021560
H            -1.250000             2.165064             0.029928
C             2.800000             0.000000             0.024765
C             1.400000            -2.424871             0.062710
C             2.800000            -2.424871             0.023509
C             3.500000            -1.212436             0.052765
H             3.350000             0.952628             0.078980
N             4.900000            -1.212436             0.029982
C             3.500000            -3.637307             0.045654
C             4.900000            -3.637307             0.095403
B             5.600000            -2.424871             0.042182
H             5.450000            -0.259808             0.093877
C             7.000000            -2.424871             0.019880
C             5.600000            -4.849742             0.009161
C             7.000000            -4.849742             0.061698
C             7.700000            -3.637307             0.072761
H             7.550000            -1.472243             0.091385
C             9.100000            -3.637307             0.025028
C             7.700000            -6.062178             0.033500
C             9.100000            -6.062178             0.032709
C             9.800000            -4.849742             0.017386
H             9.650000            -2.684679             0.092682
C            11.200000            -4.849742             0.019099
C             9.800000            -7.274613             0.011729
C            11.200000            -7.274613             0.014971
C            11.900000            -6.062178             0.077421
H            11.750000            -3.897114             0.058075
C            13.300000            -6.062178             0.044329
C            11.900000            -8.487049             0.027496
C            13.300000            -8.487049             0.063173
C            14.000000            -7.274613             0.071458
H            13.850000            -5.109550             0.005690
H            13.850000            -9.439677             0.025869
H            15.100000            -7.274613             0.082453
C            -2.800000             0.000000             0.028806
C            -3.500000            -1.212436             0.037564
C            -2.800000            -2.424871             0.021608
C            -1.400000            -2.424871             0.096195
H            -3.350000             0.952628             0.081170
C            -0.700000            -3.637307             0.021780
C             0.700000            -3.637307             0.088678
C             1.400000            -4.849742             0.027671
C             2.800000            -4.849742             0.080722
C             3.500000            -6.062178             0.052346
C             4.900000            -6.062178             0.026458
C             5.600000            -7.274613             0.076870
C             7.000000            -7.274613             0.066721
C             7.700000            -8.487049             0.029992
C             9.100000            -8.487049             0.019329
C             9.800000            -9.699485             0.071942
C            11.200000            -9.699485             0.097504
H            11.750000           -10.652112             0.060643
C            -4.900000            -1.212436             0.004612
C            -5.600000            -2.424871             0.070352
C            -4.900000            -3.637307             0.057651
C            -3.500000            -3.637307             0.060696
H            -5.450000            -0.259808             0.060601
C            -2.800000            -4.849742             0.064212
C            -1.400000            -4.849742             0.074370
C            -0.700000            -6.062178             0.096887
C             0.700000            -6.062178             0.088364
C             1.400000            -7.274613             0.009566
C             2.800000            -7.274613             0.005167
C             3.500000            -8.487049             0.062383
C             4.900000            -8.487049             0.082793
C             5.600000            -9.699485             0.092245
C             7.000000            -9.699485             0.045647
C             7.700000           -10.911920             0.035026
C             9.100000           -10.911920             0.036344
H             9.650000           -11.864548             0.066156
C            -7.000000            -2.424871             0.070351
C            -7.700000            -3.637307             0.023773
C            -7.000000            -4.849742             0.027618
C            -5.600000            -4.849742             0.066135
H            -7.550000            -1.472243             0.043042
C            -4.900000            -6.062178             0.094887
C            -3.500000            -6.062178             0.005183
C            -2.800000            -7.274613             0.073870
C            -1.400000            -7.274613             0.044995
C            -0.700000            -8.487049             0.042539
C             0.700000            -8.487049             0.097345
C             1.400000            -9.699485             0.090369
C             2.800000            -9.699485             0.003103
C             3.500000           -10.911920             0.045554
C             4.900000           -10.911920             0.062871
C             5.600000           -12.124356             0.082144
C             7.000000           -12.124356             0.017337
H             7.550000           -13.076984             0.062235
C            -9.100000            -3.637307             0.076559
C            -9.800000            -4.849742             0.022860
C            -9.100000            -6.062178             0.067921
C            -7.700000            -6.062178             0.005576
H            -9.650000            -2.684679             0.032404
C            -7.000000            -7.274613             0.057890
C            -5.600000            -7.274613             0.049608
C            -4.900000            -8.487049             0.043393
C            -3.500000            -8.487049             0.072199
C            -2.800000            -9.699485             0.017075
C            -1.400000            -9.699485             0.080726
C            -0.700000           -10.911920             0.010308
C             0.700000           -10.911920             0.076822
C             1.400000           -12.124356             0.032484
C             2.800000           -12.124356             0.050672
C             3.500000           -13.336791             0.068975
C             4.900000           -13.336791             0.095947
H             5.450000           -14.289419             0.061689
C           -11.200000            -4.849742             0.065589
C           -11.900000            -6.062178             0.091163
C           -11.200000            -7.274613             0.000518
C            -9.800000            -7.274613             0.060052
H           -11.750000            -3.897114             0.098762
H           -13.000000            -6.062178             0.012781
H           -11.750000            -8.227241             0.095129
C            -9.100000            -8.487049             0.084176
C            -7.700000            -8.487049             0.030521
H            -9.650000            -9.439677             0.088015
C            -7.000000            -9.699485             0.060891
C            -5.600000            -9.699485             0.075601
H            -7.550000           -10.652112             0.074954
C            -4.900000           -10.911920             0.013937
C            -3.500000           -10.911920             0.019572
H            -5.450000           -11.864548             0.003406
C            -2.800000           -12.124356             0.046042
C            -1.400000           -12.124356             0.079176
H            -3.350000           -13.076984             0.044263
C            -0.700000           -13.336791             0.023123
C             0.700000           -13.336791             0.094450
H            -1.250000           -14.289419             0.080363
C             1.400000           -14.549227             0.057616
C             2.800000           -14.549227             0.051327
H             0.850000           -15.501855             0.074442
H             3.350000           -15.501855             0.075297
