138
isomero_16_9
C             0.700000             1.212436             0.067606
C            -0.700000             1.212436             0.060703
C            -1.400000             0.000000             0.079322
C            -0.700000            -1.212436             0.065262
N             0.700000            -1.212436             0.057237
C             1.400000            -0.000000             0.082639
H             1.250000             2.165064             0.083220
H            -1.250000             2.165064             0.057763
C             2.800000             0.000000             0.036635
B             1.400000            -2.424871             0.081863
C             2.800000            -2.424871             0.075432
C             3.500000            -1.212436             0.053390
H             3.350000             0.952628             0.056307
C             4.900000            -1.212436             0.052180
C             3.500000            -3.637307             0.079842
C             4.900000            -3.637307             0.000377
C             5.600000            -2.424871             0.050548
H             5.450000            -0.259808             0.003044
C             7.000000            -2.424871             0.051974
C             5.600000            -4.849742             0.090823
C             7.000000            -4.849742             0.051439
C             7.700000            -3.637307             0.012449
H             7.550000            -1.472243             0.041295
C             9.100000            -3.637307             0.003916
C             7.700000            -6.062178             0.086338
C             9.100000            -6.062178             0.086734
C             9.800000            -4.849742             0.060881
H             9.650000            -2.684679             0.045950
C            11.200000            -4.849742             0.086127
C             9.800000            -7.274613             0.085831
C            11.200000            -7.274613             0.051163
C            11.900000            -6.062178             0.051258
H            11.750000            -3.897114             0.008057
C            13.300000            -6.062178             0.020821
C            11.900000            -8.487049             0.092461
C            13.300000            -8.487049             0.024146
C            14.000000            -7.274613             0.035078
H            13.850000            -5.109550             0.002599
H            13.850000            -9.439677             0.091427
H            15.100000            -7.274613             0.059125
C            -2.800000             0.000000             0.005405
C            -3.500000            -1.212436             0.063173
C            -2.800000            -2.424871             0.049760
C            -1.400000            -2.424871             0.030444
H            -3.350000             0.952628             0.022429
C            -0.700000            -3.637307             0.011517
C             0.700000            -3.637307             0.011156
C             1.400000            -4.849742             0.068112
C             2.800000            -4.849742             0.094200
C             3.500000            -6.062178             0.091822
C             4.900000            -6.062178             0.086849
C             5.600000            -7.274613             0.068144
C             7.000000            -7.274613             0.080248
C             7.700000            -8.487049             0.093155
C             9.100000            -8.487049             0.044633
C             9.800000            -9.699485             0.074995
C            11.200000            -9.699485             0.056725
H            11.750000           -10.652112             0.091819
C            -4.900000            -1.212436             0.053565
C            -5.600000            -2.424871             0.016857
C            -4.900000            -3.637307             0.038510
C            -3.500000            -3.637307             0.030508
H            -5.450000            -0.259808             0.079113
C            -2.800000            -4.849742             0.000391
C            -1.400000            -4.849742             0.086896
C            -0.700000            -6.062178             0.067047
C             0.700000            -6.062178             0.053680
C             1.400000            -7.274613             0.055458
C             2.800000            -7.274613             0.075905
C             3.500000            -8.487049             0.045091
C             4.900000            -8.487049             0.086438
C             5.600000            -9.699485             0.030217
C             7.000000            -9.699485             0.088806
C             7.700000           -10.911920             0.060967
C             9.100000           -10.911920             0.055327
H             9.650000           -11.864548             0.087196
C            -7.000000            -2.424871             0.083571
C            -7.700000            -3.637307             0.097556
C            -7.000000            -4.849742             0.046101
C            -5.600000            -4.849742             0.088455
H            -7.550000            -1.472243             0.028931
C            -4.900000            -6.062178             0.084505
C            -3.500000            -6.062178             0.027426
C            -2.800000            -7.274613             0.022761
C            -1.400000            -7.274613             0.045497
C            -0.700000            -8.487049             0.092845
C             0.700000            -8.487049             0.026908
C             1.400000            -9.699485             0.068874
C             2.800000            -9.699485             0.060546
C             3.500000           -10.911920             0.060428
C             4.900000           -10.911920             0.047267
C             5.600000           -12.124356             0.062784
C             7.000000           -12.124356             0.013515
H             7.550000           -13.076984             0.027697
C            -9.100000            -3.637307             0.068582
C            -9.800000            -4.849742             0.031744
C            -9.100000            -6.062178             0.042574
C            -7.700000            -6.062178             0.057118
H            -9.650000            -2.684679             0.069324
C            -7.000000            -7.274613             0.087987
C            -5.600000            -7.274613             0.033129
C            -4.900000            -8.487049             0.044961
C            -3.500000            -8.487049             0.027983
C            -2.800000            -9.699485             0.013347
C            -1.400000            -9.699485             0.051004
C            -0.700000           -10.911920             0.083636
C             0.700000           -10.911920             0.030803
C             1.400000           -12.124356             0.042275
C             2.800000           -12.124356             0.039308
C             3.500000           -13.336791             0.002714
C             4.900000           -13.336791             0.072368
H             5.450000           -14.289419             0.054183
C           -11.200000            -4.849742             0.066488
C           -11.900000            -6.062178             0.034643
C           -11.200000            -7.274613             0.079800
C            -9.800000            -7.274613             0.073164
H           -11.750000            -3.897114             0.034771
H           -13.000000            -6.062178             0.063748
H           -11.750000            -8.227241             0.049760
C            -9.100000            -8.487049             0.034693
C            -7.700000            -8.487049             0.012187
H            -9.650000            -9.439677             0.038327
C            -7.000000            -9.699485             0.034064
C            -5.600000            -9.699485             0.006257
H            -7.550000           -10.652112             0.093537
C            -4.900000           -10.911920             0.057036
C            -3.500000           -10.911920             0.077927
H            -5.450000           -11.864548             0.071692
C            -2.800000           -12.124356             0.004346
C            -1.400000           -12.124356             0.080000
H            -3.350000           -13.076984             0.034672
C            -0.700000           -13.336791             0.061639
C             0.700000           -13.336791             0.078348
H            -1.250000           -14.289419             0.000126
C             1.400000           -14.549227             0.025603
C             2.800000           -14.549227             0.043642
H             0.850000           -15.501855             0.087038
H             3.350000           -15.501855             0.002345
