138
isomero_39_52
C             0.700000             1.212436             0.054607
C            -0.700000             1.212436             0.074292
C            -1.400000             0.000000             0.061629
C            -0.700000            -1.212436             0.003371
C             0.700000            -1.212436             0.088860
C             1.400000            -0.000000             0.022344
H             1.250000             2.165064             0.046282
H            -1.250000             2.165064             0.018426
C             2.800000             0.000000             0.005000
C             1.400000            -2.424871             0.076652
C             2.800000            -2.424871             0.016745
C             3.500000            -1.212436             0.010629
H             3.350000             0.952628             0.000224
C             4.900000            -1.212436             0.025855
C             3.500000            -3.637307             0.078428
C             4.900000            -3.637307             0.006613
C             5.600000            -2.424871             0.099262
H             5.450000            -0.259808             0.057783
C             7.000000            -2.424871             0.067194
C             5.600000            -4.849742             0.058495
C             7.000000            -4.849742             0.098646
C             7.700000            -3.637307             0.032304
H             7.550000            -1.472243             0.056071
C             9.100000            -3.637307             0.004410
C             7.700000            -6.062178             0.052987
C             9.100000            -6.062178             0.029184
C             9.800000            -4.849742             0.057282
H             9.650000            -2.684679             0.055921
C            11.200000            -4.849742             0.002255
C             9.800000            -7.274613             0.046326
C            11.200000            -7.274613             0.084544
C            11.900000            -6.062178             0.092027
H            11.750000            -3.897114             0.085053
C            13.300000            -6.062178             0.015335
C            11.900000            -8.487049             0.051566
C            13.300000            -8.487049             0.014289
C            14.000000            -7.274613             0.074595
H            13.850000            -5.109550             0.011287
H            13.850000            -9.439677             0.066312
H            15.100000            -7.274613             0.056209
C            -2.800000             0.000000             0.073193
C            -3.500000            -1.212436             0.086394
C            -2.800000            -2.424871             0.095375
C            -1.400000            -2.424871             0.022116
H            -3.350000             0.952628             0.088395
C            -0.700000            -3.637307             0.085042
C             0.700000            -3.637307             0.043745
C             1.400000            -4.849742             0.042738
C             2.800000            -4.849742             0.034730
C             3.500000            -6.062178             0.078715
C             4.900000            -6.062178             0.060995
C             5.600000            -7.274613             0.008831
C             7.000000            -7.274613             0.067965
C             7.700000            -8.487049             0.062520
C             9.100000            -8.487049             0.035709
C             9.800000            -9.699485             0.021778
C            11.200000            -9.699485             0.000518
H            11.750000           -10.652112             0.088355
C            -4.900000            -1.212436             0.009575
C            -5.600000            -2.424871             0.082319
C            -4.900000            -3.637307             0.077034
C            -3.500000            -3.637307             0.067301
H            -5.450000            -0.259808             0.035255
C            -2.800000            -4.849742             0.048722
C            -1.400000            -4.849742             0.072347
C            -0.700000            -6.062178             0.008411
C             0.700000            -6.062178             0.072337
C             1.400000            -7.274613             0.033903
C             2.800000            -7.274613             0.040403
C             3.500000            -8.487049             0.065749
C             4.900000            -8.487049             0.041393
C             5.600000            -9.699485             0.068775
C             7.000000            -9.699485             0.030170
C             7.700000           -10.911920             0.049816
C             9.100000           -10.911920             0.095739
H             9.650000           -11.864548             0.011629
C            -7.000000            -2.424871             0.074554
C            -7.700000            -3.637307             0.019576
C            -7.000000            -4.849742             0.080337
B            -5.600000            -4.849742             0.076040
H            -7.550000            -1.472243             0.031225
N            -4.900000            -6.062178             0.095297
C            -3.500000            -6.062178             0.046296
C            -2.800000            -7.274613             0.099784
C            -1.400000            -7.274613             0.075394
C            -0.700000            -8.487049             0.071795
C             0.700000            -8.487049             0.006398
C             1.400000            -9.699485             0.094421
C             2.800000            -9.699485             0.090723
C             3.500000           -10.911920             0.096834
C             4.900000           -10.911920             0.049701
C             5.600000           -12.124356             0.074719
C             7.000000           -12.124356             0.084722
H             7.550000           -13.076984             0.094104
C            -9.100000            -3.637307             0.036953
C            -9.800000            -4.849742             0.000702
C            -9.100000            -6.062178             0.095626
C            -7.700000            -6.062178             0.058151
H            -9.650000            -2.684679             0.049983
C            -7.000000            -7.274613             0.099462
C            -5.600000            -7.274613             0.032813
C            -4.900000            -8.487049             0.000275
C            -3.500000            -8.487049             0.076889
C            -2.800000            -9.699485             0.088549
C            -1.400000            -9.699485             0.089209
C            -0.700000           -10.911920             0.074176
C             0.700000           -10.911920             0.068774
C             1.400000           -12.124356             0.042270
C             2.800000           -12.124356             0.026355
C             3.500000           -13.336791             0.037839
C             4.900000           -13.336791             0.022951
H             5.450000           -14.289419             0.044697
C           -11.200000            -4.849742             0.094251
C           -11.900000            -6.062178             0.085199
C           -11.200000            -7.274613             0.003436
C            -9.800000            -7.274613             0.064686
H           -11.750000            -3.897114             0.093321
H           -13.000000            -6.062178             0.056477
H           -11.750000            -8.227241             0.030278
C            -9.100000            -8.487049             0.008552
C            -7.700000            -8.487049             0.059582
H            -9.650000            -9.439677             0.045333
C            -7.000000            -9.699485             0.030948
C            -5.600000            -9.699485             0.019005
H            -7.550000           -10.652112             0.050695
C            -4.900000           -10.911920             0.027278
C            -3.500000           -10.911920             0.054409
H            -5.450000           -11.864548             0.063248
C            -2.800000           -12.124356             0.007631
C            -1.400000           -12.124356             0.001235
H            -3.350000           -13.076984             0.018847
C            -0.700000           -13.336791             0.081778
C             0.700000           -13.336791             0.007906
H            -1.250000           -14.289419             0.087892
C             1.400000           -14.549227             0.087733
C             2.800000           -14.549227             0.088945
H             0.850000           -15.501855             0.093717
H             3.350000           -15.501855             0.020106
