138
isomero_51_38
C             0.700000             1.212436             0.074520
C            -0.700000             1.212436             0.092372
C            -1.400000             0.000000             0.024513
C            -0.700000            -1.212436             0.012452
C             0.700000            -1.212436             0.010652
C             1.400000            -0.000000             0.019119
H             1.250000             2.165064             0.050951
H            -1.250000             2.165064             0.020907
C             2.800000             0.000000             0.080283
C             1.400000            -2.424871             0.026609
C             2.800000            -2.424871             0.072959
C             3.500000            -1.212436             0.022808
H             3.350000             0.952628             0.081773
C             4.900000            -1.212436             0.074556
C             3.500000            -3.637307             0.075323
C             4.900000            -3.637307             0.077968
C             5.600000            -2.424871             0.024418
H             5.450000            -0.259808             0.076598
C             7.000000            -2.424871             0.031017
C             5.600000            -4.849742             0.077187
C             7.000000            -4.849742             0.069297
C             7.700000            -3.637307             0.015849
H             7.550000            -1.472243             0.021244
C             9.100000            -3.637307             0.015883
C             7.700000            -6.062178             0.053652
C             9.100000            -6.062178             0.021553
C             9.800000            -4.849742             0.027536
H             9.650000            -2.684679             0.005537
C            11.200000            -4.849742             0.084404
C             9.800000            -7.274613             0.052718
C            11.200000            -7.274613             0.039147
C            11.900000            -6.062178             0.024489
H            11.750000            -3.897114             0.052971
C            13.300000            -6.062178             0.006252
C            11.900000            -8.487049             0.084735
C            13.300000            -8.487049             0.010259
C            14.000000            -7.274613             0.026515
H            13.850000            -5.109550             0.042223
H            13.850000            -9.439677             0.023688
H            15.100000            -7.274613             0.000720
C            -2.800000             0.000000             0.009308
C            -3.500000            -1.212436             0.094239
C            -2.800000            -2.424871             0.014211
C            -1.400000            -2.424871             0.084824
H            -3.350000             0.952628             0.051315
C            -0.700000            -3.637307             0.068959
C             0.700000            -3.637307             0.059596
C             1.400000            -4.849742             0.013433
C             2.800000            -4.849742             0.038494
C             3.500000            -6.062178             0.059817
C             4.900000            -6.062178             0.064244
C             5.600000            -7.274613             0.072936
C             7.000000            -7.274613             0.072649
C             7.700000            -8.487049             0.027426
C             9.100000            -8.487049             0.085434
C             9.800000            -9.699485             0.077084
C            11.200000            -9.699485             0.079221
H            11.750000           -10.652112             0.033074
C            -4.900000            -1.212436             0.016393
C            -5.600000            -2.424871             0.061602
C            -4.900000            -3.637307             0.045485
C            -3.500000            -3.637307             0.096880
H            -5.450000            -0.259808             0.013265
N            -2.800000            -4.849742             0.082621
C            -1.400000            -4.849742             0.038257
C            -0.700000            -6.062178             0.077221
C             0.700000            -6.062178             0.077769
C             1.400000            -7.274613             0.018637
C             2.800000            -7.274613             0.078160
C             3.500000            -8.487049             0.062631
C             4.900000            -8.487049             0.055664
C             5.600000            -9.699485             0.078280
C             7.000000            -9.699485             0.010134
C             7.700000           -10.911920             0.051181
C             9.100000           -10.911920             0.065964
H             9.650000           -11.864548             0.080503
C            -7.000000            -2.424871             0.018666
C            -7.700000            -3.637307             0.040217
C            -7.000000            -4.849742             0.087019
C            -5.600000            -4.849742             0.037611
H            -7.550000            -1.472243             0.077174
C            -4.900000            -6.062178             0.061855
B            -3.500000            -6.062178             0.032392
C            -2.800000            -7.274613             0.080859
C            -1.400000            -7.274613             0.027872
C            -0.700000            -8.487049             0.011385
C             0.700000            -8.487049             0.070981
C             1.400000            -9.699485             0.086002
C             2.800000            -9.699485             0.004862
C             3.500000           -10.911920             0.048414
C             4.900000           -10.911920             0.030267
C             5.600000           -12.124356             0.040784
C             7.000000           -12.124356             0.033138
H             7.550000           -13.076984             0.074724
C            -9.100000            -3.637307             0.025492
C            -9.800000            -4.849742             0.084544
C            -9.100000            -6.062178             0.027256
C            -7.700000            -6.062178             0.051675
H            -9.650000            -2.684679             0.056893
C            -7.000000            -7.274613             0.067502
C            -5.600000            -7.274613             0.009464
C            -4.900000            -8.487049             0.099887
C            -3.500000            -8.487049             0.087290
C            -2.800000            -9.699485             0.026369
C            -1.400000            -9.699485             0.046771
C            -0.700000           -10.911920             0.001868
C             0.700000           -10.911920             0.035938
C             1.400000           -12.124356             0.047528
C             2.800000           -12.124356             0.067232
C             3.500000           -13.336791             0.092381
C             4.900000           -13.336791             0.025441
H             5.450000           -14.289419             0.065529
C           -11.200000            -4.849742             0.070604
C           -11.900000            -6.062178             0.057366
C           -11.200000            -7.274613             0.061987
C            -9.800000            -7.274613             0.028374
H           -11.750000            -3.897114             0.017891
H           -13.000000            -6.062178             0.058110
H           -11.750000            -8.227241             0.076547
C            -9.100000            -8.487049             0.091873
C            -7.700000            -8.487049             0.097075
H            -9.650000            -9.439677             0.076373
C            -7.000000            -9.699485             0.019489
C            -5.600000            -9.699485             0.088157
H            -7.550000           -10.652112             0.044910
C            -4.900000           -10.911920             0.066911
C            -3.500000           -10.911920             0.051983
H            -5.450000           -11.864548             0.025999
C            -2.800000           -12.124356             0.014283
C            -1.400000           -12.124356             0.057800
H            -3.350000           -13.076984             0.093949
C            -0.700000           -13.336791             0.068629
C             0.700000           -13.336791             0.063428
H            -1.250000           -14.289419             0.094705
C             1.400000           -14.549227             0.031852
C             2.800000           -14.549227             0.073969
H             0.850000           -15.501855             0.074956
H             3.350000           -15.501855             0.057529
