138
isomero_36_25
C             0.700000             1.212436             0.023714
C            -0.700000             1.212436             0.049759
C            -1.400000             0.000000             0.056683
C            -0.700000            -1.212436             0.069080
C             0.700000            -1.212436             0.046708
C             1.400000            -0.000000             0.007167
H             1.250000             2.165064             0.070736
H            -1.250000             2.165064             0.054851
C             2.800000             0.000000             0.065646
C             1.400000            -2.424871             0.052147
C             2.800000            -2.424871             0.026160
C             3.500000            -1.212436             0.096595
H             3.350000             0.952628             0.010398
C             4.900000            -1.212436             0.033935
C             3.500000            -3.637307             0.061169
C             4.900000            -3.637307             0.023759
C             5.600000            -2.424871             0.048488
H             5.450000            -0.259808             0.064584
C             7.000000            -2.424871             0.096315
C             5.600000            -4.849742             0.023846
C             7.000000            -4.849742             0.097956
C             7.700000            -3.637307             0.055200
H             7.550000            -1.472243             0.026966
C             9.100000            -3.637307             0.080859
C             7.700000            -6.062178             0.025037
C             9.100000            -6.062178             0.012157
C             9.800000            -4.849742             0.045470
H             9.650000            -2.684679             0.000686
C            11.200000            -4.849742             0.067229
C             9.800000            -7.274613             0.071543
C            11.200000            -7.274613             0.033132
C            11.900000            -6.062178             0.040842
H            11.750000            -3.897114             0.072239
C            13.300000            -6.062178             0.052292
C            11.900000            -8.487049             0.007214
C            13.300000            -8.487049             0.032652
C            14.000000            -7.274613             0.091906
H            13.850000            -5.109550             0.083661
H            13.850000            -9.439677             0.001324
H            15.100000            -7.274613             0.092938
C            -2.800000             0.000000             0.089217
C            -3.500000            -1.212436             0.034450
C            -2.800000            -2.424871             0.015777
C            -1.400000            -2.424871             0.002603
H            -3.350000             0.952628             0.082778
C            -0.700000            -3.637307             0.070651
N             0.700000            -3.637307             0.087930
B             1.400000            -4.849742             0.036506
C             2.800000            -4.849742             0.039066
C             3.500000            -6.062178             0.099441
C             4.900000            -6.062178             0.025556
C             5.600000            -7.274613             0.047632
C             7.000000            -7.274613             0.039054
C             7.700000            -8.487049             0.062854
C             9.100000            -8.487049             0.000424
C             9.800000            -9.699485             0.020084
C            11.200000            -9.699485             0.037247
H            11.750000           -10.652112             0.026157
C            -4.900000            -1.212436             0.076680
C            -5.600000            -2.424871             0.044975
C            -4.900000            -3.637307             0.075652
C            -3.500000            -3.637307             0.092632
H            -5.450000            -0.259808             0.007382
C            -2.800000            -4.849742             0.099542
C            -1.400000            -4.849742             0.017749
C            -0.700000            -6.062178             0.045047
C             0.700000            -6.062178             0.022862
C             1.400000            -7.274613             0.040211
C             2.800000            -7.274613             0.032288
C             3.500000            -8.487049             0.031620
C             4.900000            -8.487049             0.022503
C             5.600000            -9.699485             0.056251
C             7.000000            -9.699485             0.043878
C             7.700000           -10.911920             0.053437
C             9.100000           -10.911920             0.078489
H             9.650000           -11.864548             0.003756
C            -7.000000            -2.424871             0.005526
C            -7.700000            -3.637307             0.013653
C            -7.000000            -4.849742             0.017012
C            -5.600000            -4.849742             0.072036
H            -7.550000            -1.472243             0.017573
C            -4.900000            -6.062178             0.035297
C            -3.500000            -6.062178             0.010472
C            -2.800000            -7.274613             0.069066
C            -1.400000            -7.274613             0.098561
C            -0.700000            -8.487049             0.021535
C             0.700000            -8.487049             0.018711
C             1.400000            -9.699485             0.024548
C             2.800000            -9.699485             0.017373
C             3.500000           -10.911920             0.014833
C             4.900000           -10.911920             0.016718
C             5.600000           -12.124356             0.078587
C             7.000000           -12.124356             0.014506
H             7.550000           -13.076984             0.084933
C            -9.100000            -3.637307             0.014455
C            -9.800000            -4.849742             0.059302
C            -9.100000            -6.062178             0.032017
C            -7.700000            -6.062178             0.011709
H            -9.650000            -2.684679             0.038022
C            -7.000000            -7.274613             0.087071
C            -5.600000            -7.274613             0.006709
C            -4.900000            -8.487049             0.036460
C            -3.500000            -8.487049             0.006717
C            -2.800000            -9.699485             0.093182
C            -1.400000            -9.699485             0.071751
C            -0.700000           -10.911920             0.077381
C             0.700000           -10.911920             0.022620
C             1.400000           -12.124356             0.077296
C             2.800000           -12.124356             0.069361
C             3.500000           -13.336791             0.086188
C             4.900000           -13.336791             0.088587
H             5.450000           -14.289419             0.025831
C           -11.200000            -4.849742             0.041089
C           -11.900000            -6.062178             0.054562
C           -11.200000            -7.274613             0.042247
C            -9.800000            -7.274613             0.000030
H           -11.750000            -3.897114             0.014578
H           -13.000000            -6.062178             0.092195
H           -11.750000            -8.227241             0.049532
C            -9.100000            -8.487049             0.033496
C            -7.700000            -8.487049             0.099743
H            -9.650000            -9.439677             0.069966
C            -7.000000            -9.699485             0.032948
C            -5.600000            -9.699485             0.027859
H            -7.550000           -10.652112             0.001823
C            -4.900000           -10.911920             0.007844
C            -3.500000           -10.911920             0.079836
H            -5.450000           -11.864548             0.086113
C            -2.800000           -12.124356             0.093983
C            -1.400000           -12.124356             0.084470
H            -3.350000           -13.076984             0.091440
C            -0.700000           -13.336791             0.058911
C             0.700000           -13.336791             0.019509
H            -1.250000           -14.289419             0.064390
C             1.400000           -14.549227             0.093609
C             2.800000           -14.549227             0.031090
H             0.850000           -15.501855             0.033442
H             3.350000           -15.501855             0.056492
