138
isomero_11_18
C             0.700000             1.212436             0.082343
C            -0.700000             1.212436             0.039452
C            -1.400000             0.000000             0.011527
C            -0.700000            -1.212436             0.081758
C             0.700000            -1.212436             0.003529
C             1.400000            -0.000000             0.073204
H             1.250000             2.165064             0.090943
H            -1.250000             2.165064             0.089607
C             2.800000             0.000000             0.026441
C             1.400000            -2.424871             0.013767
C             2.800000            -2.424871             0.059706
C             3.500000            -1.212436             0.016122
H             3.350000             0.952628             0.060013
C             4.900000            -1.212436             0.062982
C             3.500000            -3.637307             0.094277
C             4.900000            -3.637307             0.019018
C             5.600000            -2.424871             0.097597
H             5.450000            -0.259808             0.013632
C             7.000000            -2.424871             0.060131
C             5.600000            -4.849742             0.021788
C             7.000000            -4.849742             0.053151
C             7.700000            -3.637307             0.097392
H             7.550000            -1.472243             0.007377
C             9.100000            -3.637307             0.096593
C             7.700000            -6.062178             0.009702
C             9.100000            -6.062178             0.034766
C             9.800000            -4.849742             0.050057
H             9.650000            -2.684679             0.075214
C            11.200000            -4.849742             0.055447
C             9.800000            -7.274613             0.091340
C            11.200000            -7.274613             0.093184
C            11.900000            -6.062178             0.040866
H            11.750000            -3.897114             0.008340
C            13.300000            -6.062178             0.053242
C            11.900000            -8.487049             0.055038
C            13.300000            -8.487049             0.073950
C            14.000000            -7.274613             0.037216
H            13.850000            -5.109550             0.031915
H            13.850000            -9.439677             0.087804
H            15.100000            -7.274613             0.089522
C            -2.800000             0.000000             0.063045
B            -3.500000            -1.212436             0.012526
N            -2.800000            -2.424871             0.091673
C            -1.400000            -2.424871             0.026609
H            -3.350000             0.952628             0.092578
C            -0.700000            -3.637307             0.022810
C             0.700000            -3.637307             0.043385
C             1.400000            -4.849742             0.069048
C             2.800000            -4.849742             0.098072
C             3.500000            -6.062178             0.029791
C             4.900000            -6.062178             0.030249
C             5.600000            -7.274613             0.010411
C             7.000000            -7.274613             0.051496
C             7.700000            -8.487049             0.061245
C             9.100000            -8.487049             0.070106
C             9.800000            -9.699485             0.091379
C            11.200000            -9.699485             0.097629
H            11.750000           -10.652112             0.093523
C            -4.900000            -1.212436             0.034290
C            -5.600000            -2.424871             0.025311
C            -4.900000            -3.637307             0.082122
C            -3.500000            -3.637307             0.061146
H            -5.450000            -0.259808             0.065415
C            -2.800000            -4.849742             0.091661
C            -1.400000            -4.849742             0.059983
C            -0.700000            -6.062178             0.054518
C             0.700000            -6.062178             0.087435
C             1.400000            -7.274613             0.092784
C             2.800000            -7.274613             0.093317
C             3.500000            -8.487049             0.085313
C             4.900000            -8.487049             0.085765
C             5.600000            -9.699485             0.073797
C             7.000000            -9.699485             0.055490
C             7.700000           -10.911920             0.053200
C             9.100000           -10.911920             0.048454
H             9.650000           -11.864548             0.004062
C            -7.000000            -2.424871             0.091982
C            -7.700000            -3.637307             0.053886
C            -7.000000            -4.849742             0.045441
C            -5.600000            -4.849742             0.025948
H            -7.550000            -1.472243             0.083041
C            -4.900000            -6.062178             0.090497
C            -3.500000            -6.062178             0.066864
C            -2.800000            -7.274613             0.090219
C            -1.400000            -7.274613             0.084769
C            -0.700000            -8.487049             0.021955
C             0.700000            -8.487049             0.019110
C             1.400000            -9.699485             0.059470
C             2.800000            -9.699485             0.095194
C             3.500000           -10.911920             0.054203
C             4.900000           -10.911920             0.047931
C             5.600000           -12.124356             0.008874
C             7.000000           -12.124356             0.071941
H             7.550000           -13.076984             0.060314
C            -9.100000            -3.637307             0.093730
C            -9.800000            -4.849742             0.025722
C            -9.100000            -6.062178             0.051673
C            -7.700000            -6.062178             0.065303
H            -9.650000            -2.684679             0.000209
C            -7.000000            -7.274613             0.035338
C            -5.600000            -7.274613             0.013643
C            -4.900000            -8.487049             0.022484
C            -3.500000            -8.487049             0.080925
C            -2.800000            -9.699485             0.099473
C            -1.400000            -9.699485             0.082866
C            -0.700000           -10.911920             0.000858
C             0.700000           -10.911920             0.085576
C             1.400000           -12.124356             0.057025
C             2.800000           -12.124356             0.062488
C             3.500000           -13.336791             0.043429
C             4.900000           -13.336791             0.045470
H             5.450000           -14.289419             0.099770
C           -11.200000            -4.849742             0.092274
C           -11.900000            -6.062178             0.069284
C           -11.200000            -7.274613             0.035888
C            -9.800000            -7.274613             0.083853
H           -11.750000            -3.897114             0.043144
H           -13.000000            -6.062178             0.090405
H           -11.750000            -8.227241             0.013475
C            -9.100000            -8.487049             0.020552
C            -7.700000            -8.487049             0.074641
H            -9.650000            -9.439677             0.045216
C            -7.000000            -9.699485             0.078349
C            -5.600000            -9.699485             0.000459
H            -7.550000           -10.652112             0.040098
C            -4.900000           -10.911920             0.014616
C            -3.500000           -10.911920             0.043934
H            -5.450000           -11.864548             0.034535
C            -2.800000           -12.124356             0.038742
C            -1.400000           -12.124356             0.084033
H            -3.350000           -13.076984             0.089929
C            -0.700000           -13.336791             0.019358
C             0.700000           -13.336791             0.022677
H            -1.250000           -14.289419             0.002230
C             1.400000           -14.549227             0.028868
C             2.800000           -14.549227             0.001136
H             0.850000           -15.501855             0.067434
H             3.350000           -15.501855             0.059202
