138
isomero_11_6
C             0.700000             1.212436             0.018543
C            -0.700000             1.212436             0.006015
C            -1.400000             0.000000             0.054477
C            -0.700000            -1.212436             0.059986
C             0.700000            -1.212436             0.067098
C             1.400000            -0.000000             0.059523
H             1.250000             2.165064             0.047166
H            -1.250000             2.165064             0.068527
C             2.800000             0.000000             0.043245
C             1.400000            -2.424871             0.056768
C             2.800000            -2.424871             0.072050
C             3.500000            -1.212436             0.083517
H             3.350000             0.952628             0.098092
C             4.900000            -1.212436             0.081493
C             3.500000            -3.637307             0.003373
C             4.900000            -3.637307             0.034723
C             5.600000            -2.424871             0.079280
H             5.450000            -0.259808             0.070807
C             7.000000            -2.424871             0.058414
C             5.600000            -4.849742             0.064263
C             7.000000            -4.849742             0.048062
C             7.700000            -3.637307             0.022590
H             7.550000            -1.472243             0.086815
C             9.100000            -3.637307             0.000367
C             7.700000            -6.062178             0.098065
C             9.100000            -6.062178             0.070164
C             9.800000            -4.849742             0.066107
H             9.650000            -2.684679             0.079396
C            11.200000            -4.849742             0.066380
C             9.800000            -7.274613             0.083997
C            11.200000            -7.274613             0.033097
C            11.900000            -6.062178             0.071715
H            11.750000            -3.897114             0.006512
C            13.300000            -6.062178             0.022565
C            11.900000            -8.487049             0.022289
C            13.300000            -8.487049             0.047447
C            14.000000            -7.274613             0.011809
H            13.850000            -5.109550             0.012378
H            13.850000            -9.439677             0.098972
H            15.100000            -7.274613             0.071827
N            -2.800000             0.000000             0.012414
B            -3.500000            -1.212436             0.069138
C            -2.800000            -2.424871             0.081358
C            -1.400000            -2.424871             0.094809
H            -3.350000             0.952628             0.078065
C            -0.700000            -3.637307             0.048560
C             0.700000            -3.637307             0.090940
C             1.400000            -4.849742             0.055616
C             2.800000            -4.849742             0.086368
C             3.500000            -6.062178             0.097371
C             4.900000            -6.062178             0.097413
C             5.600000            -7.274613             0.052829
C             7.000000            -7.274613             0.021880
C             7.700000            -8.487049             0.032869
C             9.100000            -8.487049             0.073342
C             9.800000            -9.699485             0.082439
C            11.200000            -9.699485             0.012565
H            11.750000           -10.652112             0.059440
C            -4.900000            -1.212436             0.041793
C            -5.600000            -2.424871             0.053572
C            -4.900000            -3.637307             0.066502
C            -3.500000            -3.637307             0.010266
H            -5.450000            -0.259808             0.057062
C            -2.800000            -4.849742             0.067406
C            -1.400000            -4.849742             0.061479
C            -0.700000            -6.062178             0.053233
C             0.700000            -6.062178             0.038649
C             1.400000            -7.274613             0.068331
C             2.800000            -7.274613             0.044038
C             3.500000            -8.487049             0.035306
C             4.900000            -8.487049             0.028612
C             5.600000            -9.699485             0.004784
C             7.000000            -9.699485             0.084883
C             7.700000           -10.911920             0.081551
C             9.100000           -10.911920             0.004010
H             9.650000           -11.864548             0.096117
C            -7.000000            -2.424871             0.094364
C            -7.700000            -3.637307             0.076988
C            -7.000000            -4.849742             0.082803
C            -5.600000            -4.849742             0.078869
H            -7.550000            -1.472243             0.049046
C            -4.900000            -6.062178             0.019911
C            -3.500000            -6.062178             0.000577
C            -2.800000            -7.274613             0.007926
C            -1.400000            -7.274613             0.055680
C            -0.700000            -8.487049             0.045540
C             0.700000            -8.487049             0.098416
C             1.400000            -9.699485             0.093878
C             2.800000            -9.699485             0.080011
C             3.500000           -10.911920             0.089508
C             4.900000           -10.911920             0.031646
C             5.600000           -12.124356             0.044661
C             7.000000           -12.124356             0.094617
H             7.550000           -13.076984             0.058819
C            -9.100000            -3.637307             0.071804
C            -9.800000            -4.849742             0.066193
C            -9.100000            -6.062178             0.014302
C            -7.700000            -6.062178             0.019247
H            -9.650000            -2.684679             0.083451
C            -7.000000            -7.274613             0.031269
C            -5.600000            -7.274613             0.076690
C            -4.900000            -8.487049             0.099278
C            -3.500000            -8.487049             0.031256
C            -2.800000            -9.699485             0.021724
C            -1.400000            -9.699485             0.009079
C            -0.700000           -10.911920             0.091550
C             0.700000           -10.911920             0.065296
C             1.400000           -12.124356             0.007252
C             2.800000           -12.124356             0.013133
C             3.500000           -13.336791             0.009481
C             4.900000           -13.336791             0.094792
H             5.450000           -14.289419             0.097993
C           -11.200000            -4.849742             0.000539
C           -11.900000            -6.062178             0.059959
C           -11.200000            -7.274613             0.095572
C            -9.800000            -7.274613             0.007663
H           -11.750000            -3.897114             0.000707
H           -13.000000            -6.062178             0.068885
H           -11.750000            -8.227241             0.016089
C            -9.100000            -8.487049             0.075940
C            -7.700000            -8.487049             0.020661
H            -9.650000            -9.439677             0.056357
C            -7.000000            -9.699485             0.073840
C            -5.600000            -9.699485             0.005492
H            -7.550000           -10.652112             0.082929
C            -4.900000           -10.911920             0.066449
C            -3.500000           -10.911920             0.085131
H            -5.450000           -11.864548             0.022422
C            -2.800000           -12.124356             0.054029
C            -1.400000           -12.124356             0.081806
H            -3.350000           -13.076984             0.086870
C            -0.700000           -13.336791             0.084192
C             0.700000           -13.336791             0.041617
H            -1.250000           -14.289419             0.058274
C             1.400000           -14.549227             0.040846
C             2.800000           -14.549227             0.060516
H             0.850000           -15.501855             0.082737
H             3.350000           -15.501855             0.005212
