138
isomero_50_37
C             0.700000             1.212436             0.053453
C            -0.700000             1.212436             0.064376
C            -1.400000             0.000000             0.019676
C            -0.700000            -1.212436             0.016915
C             0.700000            -1.212436             0.088042
C             1.400000            -0.000000             0.085960
H             1.250000             2.165064             0.081045
H            -1.250000             2.165064             0.058963
C             2.800000             0.000000             0.035576
C             1.400000            -2.424871             0.015199
C             2.800000            -2.424871             0.030463
C             3.500000            -1.212436             0.002195
H             3.350000             0.952628             0.084818
C             4.900000            -1.212436             0.088103
C             3.500000            -3.637307             0.074361
C             4.900000            -3.637307             0.026257
C             5.600000            -2.424871             0.093111
H             5.450000            -0.259808             0.076154
C             7.000000            -2.424871             0.077419
C             5.600000            -4.849742             0.011538
C             7.000000            -4.849742             0.043532
C             7.700000            -3.637307             0.000072
H             7.550000            -1.472243             0.008351
C             9.100000            -3.637307             0.049545
C             7.700000            -6.062178             0.059018
C             9.100000            -6.062178             0.004678
C             9.800000            -4.849742             0.006244
H             9.650000            -2.684679             0.023252
C            11.200000            -4.849742             0.088551
C             9.800000            -7.274613             0.001873
C            11.200000            -7.274613             0.031601
C            11.900000            -6.062178             0.088284
H            11.750000            -3.897114             0.019591
C            13.300000            -6.062178             0.091244
C            11.900000            -8.487049             0.009151
C            13.300000            -8.487049             0.001400
C            14.000000            -7.274613             0.055268
H            13.850000            -5.109550             0.081668
H            13.850000            -9.439677             0.096559
H            15.100000            -7.274613             0.018084
C            -2.800000             0.000000             0.035403
C            -3.500000            -1.212436             0.050590
C            -2.800000            -2.424871             0.083758
C            -1.400000            -2.424871             0.053241
H            -3.350000             0.952628             0.077429
C            -0.700000            -3.637307             0.044757
C             0.700000            -3.637307             0.060559
C             1.400000            -4.849742             0.004718
C             2.800000            -4.849742             0.086860
C             3.500000            -6.062178             0.080283
C             4.900000            -6.062178             0.047553
C             5.600000            -7.274613             0.034375
C             7.000000            -7.274613             0.009092
C             7.700000            -8.487049             0.039722
C             9.100000            -8.487049             0.046726
C             9.800000            -9.699485             0.082128
C            11.200000            -9.699485             0.002077
H            11.750000           -10.652112             0.036819
C            -4.900000            -1.212436             0.087834
C            -5.600000            -2.424871             0.057036
C            -4.900000            -3.637307             0.019551
C            -3.500000            -3.637307             0.011709
H            -5.450000            -0.259808             0.092156
C            -2.800000            -4.849742             0.067849
N            -1.400000            -4.849742             0.022205
B            -0.700000            -6.062178             0.092383
C             0.700000            -6.062178             0.071746
C             1.400000            -7.274613             0.037605
C             2.800000            -7.274613             0.025605
C             3.500000            -8.487049             0.035233
C             4.900000            -8.487049             0.070254
C             5.600000            -9.699485             0.065489
C             7.000000            -9.699485             0.090204
C             7.700000           -10.911920             0.039266
C             9.100000           -10.911920             0.000993
H             9.650000           -11.864548             0.010435
C            -7.000000            -2.424871             0.060491
C            -7.700000            -3.637307             0.000309
C            -7.000000            -4.849742             0.063804
C            -5.600000            -4.849742             0.011263
H            -7.550000            -1.472243             0.060195
C            -4.900000            -6.062178             0.030063
C            -3.500000            -6.062178             0.019745
C            -2.800000            -7.274613             0.005958
C            -1.400000            -7.274613             0.014200
C            -0.700000            -8.487049             0.098032
C             0.700000            -8.487049             0.009199
C             1.400000            -9.699485             0.098239
C             2.800000            -9.699485             0.074551
C             3.500000           -10.911920             0.074824
C             4.900000           -10.911920             0.012825
C             5.600000           -12.124356             0.099101
C             7.000000           -12.124356             0.099401
H             7.550000           -13.076984             0.026771
C            -9.100000            -3.637307             0.028112
C            -9.800000            -4.849742             0.071733
C            -9.100000            -6.062178             0.099011
C            -7.700000            -6.062178             0.014448
H            -9.650000            -2.684679             0.044845
C            -7.000000            -7.274613             0.040444
C            -5.600000            -7.274613             0.027779
C            -4.900000            -8.487049             0.003217
C            -3.500000            -8.487049             0.010803
C            -2.800000            -9.699485             0.026048
C            -1.400000            -9.699485             0.049809
C            -0.700000           -10.911920             0.060641
C             0.700000           -10.911920             0.020051
C             1.400000           -12.124356             0.024281
C             2.800000           -12.124356             0.061415
C             3.500000           -13.336791             0.088799
C             4.900000           -13.336791             0.011525
H             5.450000           -14.289419             0.026940
C           -11.200000            -4.849742             0.066402
C           -11.900000            -6.062178             0.044265
C           -11.200000            -7.274613             0.054120
C            -9.800000            -7.274613             0.071240
H           -11.750000            -3.897114             0.042824
H           -13.000000            -6.062178             0.056843
H           -11.750000            -8.227241             0.079066
C            -9.100000            -8.487049             0.017037
C            -7.700000            -8.487049             0.049218
H            -9.650000            -9.439677             0.096844
C            -7.000000            -9.699485             0.044842
C            -5.600000            -9.699485             0.030977
H            -7.550000           -10.652112             0.072779
C            -4.900000           -10.911920             0.076134
C            -3.500000           -10.911920             0.058118
H            -5.450000           -11.864548             0.081471
C            -2.800000           -12.124356             0.055307
C            -1.400000           -12.124356             0.001079
H            -3.350000           -13.076984             0.045325
C            -0.700000           -13.336791             0.099390
C             0.700000           -13.336791             0.072308
H            -1.250000           -14.289419             0.053909
C             1.400000           -14.549227             0.051847
C             2.800000           -14.549227             0.069028
H             0.850000           -15.501855             0.065920
H             3.350000           -15.501855             0.085992
