138
isomero_2_1
N             0.700000             1.212436             0.086421
B            -0.700000             1.212436             0.054880
C            -1.400000             0.000000             0.081165
C            -0.700000            -1.212436             0.002731
C             0.700000            -1.212436             0.078858
C             1.400000            -0.000000             0.057367
H             1.250000             2.165064             0.046271
H            -1.250000             2.165064             0.013565
C             2.800000             0.000000             0.027186
C             1.400000            -2.424871             0.050439
C             2.800000            -2.424871             0.054269
C             3.500000            -1.212436             0.044228
H             3.350000             0.952628             0.000293
C             4.900000            -1.212436             0.077786
C             3.500000            -3.637307             0.043329
C             4.900000            -3.637307             0.066373
C             5.600000            -2.424871             0.085848
H             5.450000            -0.259808             0.024977
C             7.000000            -2.424871             0.023771
C             5.600000            -4.849742             0.015966
C             7.000000            -4.849742             0.067818
C             7.700000            -3.637307             0.031790
H             7.550000            -1.472243             0.008014
C             9.100000            -3.637307             0.001406
C             7.700000            -6.062178             0.075347
C             9.100000            -6.062178             0.046340
C             9.800000            -4.849742             0.017913
H             9.650000            -2.684679             0.030061
C            11.200000            -4.849742             0.085471
C             9.800000            -7.274613             0.046307
C            11.200000            -7.274613             0.099428
C            11.900000            -6.062178             0.052506
H            11.750000            -3.897114             0.026862
C            13.300000            -6.062178             0.094712
C            11.900000            -8.487049             0.071790
C            13.300000            -8.487049             0.017125
C            14.000000            -7.274613             0.027333
H            13.850000            -5.109550             0.027893
H            13.850000            -9.439677             0.046985
H            15.100000            -7.274613             0.001798
C            -2.800000             0.000000             0.065711
C            -3.500000            -1.212436             0.099933
C            -2.800000            -2.424871             0.027277
C            -1.400000            -2.424871             0.097497
H            -3.350000             0.952628             0.032042
C            -0.700000            -3.637307             0.027012
C             0.700000            -3.637307             0.072962
C             1.400000            -4.849742             0.085621
C             2.800000            -4.849742             0.047588
C             3.500000            -6.062178             0.053517
C             4.900000            -6.062178             0.019100
C             5.600000            -7.274613             0.028780
C             7.000000            -7.274613             0.079453
C             7.700000            -8.487049             0.057072
C             9.100000            -8.487049             0.046704
C             9.800000            -9.699485             0.001263
C            11.200000            -9.699485             0.088983
H            11.750000           -10.652112             0.009071
C            -4.900000            -1.212436             0.041231
C            -5.600000            -2.424871             0.093038
C            -4.900000            -3.637307             0.099241
C            -3.500000            -3.637307             0.071804
H            -5.450000            -0.259808             0.096662
C            -2.800000            -4.849742             0.090647
C            -1.400000            -4.849742             0.068693
C            -0.700000            -6.062178             0.010276
C             0.700000            -6.062178             0.071360
C             1.400000            -7.274613             0.022101
C             2.800000            -7.274613             0.097529
C             3.500000            -8.487049             0.030785
C             4.900000            -8.487049             0.059873
C             5.600000            -9.699485             0.064810
C             7.000000            -9.699485             0.085424
C             7.700000           -10.911920             0.060699
C             9.100000           -10.911920             0.075198
H             9.650000           -11.864548             0.089591
C            -7.000000            -2.424871             0.057158
C            -7.700000            -3.637307             0.085041
C            -7.000000            -4.849742             0.015623
C            -5.600000            -4.849742             0.013556
H            -7.550000            -1.472243             0.004859
C            -4.900000            -6.062178             0.034330
C            -3.500000            -6.062178             0.029029
C            -2.800000            -7.274613             0.093541
C            -1.400000            -7.274613             0.099433
C            -0.700000            -8.487049             0.084885
C             0.700000            -8.487049             0.046098
C             1.400000            -9.699485             0.090395
C             2.800000            -9.699485             0.030121
C             3.500000           -10.911920             0.078636
C             4.900000           -10.911920             0.096583
C             5.600000           -12.124356             0.023829
C             7.000000           -12.124356             0.083052
H             7.550000           -13.076984             0.065462
C            -9.100000            -3.637307             0.008324
C            -9.800000            -4.849742             0.079095
C            -9.100000            -6.062178             0.094054
C            -7.700000            -6.062178             0.067347
H            -9.650000            -2.684679             0.090079
C            -7.000000            -7.274613             0.092718
C            -5.600000            -7.274613             0.089386
C            -4.900000            -8.487049             0.061056
C            -3.500000            -8.487049             0.013663
C            -2.800000            -9.699485             0.085860
C            -1.400000            -9.699485             0.076897
C            -0.700000           -10.911920             0.078124
C             0.700000           -10.911920             0.028605
C             1.400000           -12.124356             0.051172
C             2.800000           -12.124356             0.025839
C             3.500000           -13.336791             0.006599
C             4.900000           -13.336791             0.044780
H             5.450000           -14.289419             0.037328
C           -11.200000            -4.849742             0.066769
C           -11.900000            -6.062178             0.019749
C           -11.200000            -7.274613             0.054858
C            -9.800000            -7.274613             0.073673
H           -11.750000            -3.897114             0.008001
H           -13.000000            -6.062178             0.067102
H           -11.750000            -8.227241             0.083217
C            -9.100000            -8.487049             0.073276
C            -7.700000            -8.487049             0.085037
H            -9.650000            -9.439677             0.001547
C            -7.000000            -9.699485             0.001018
C            -5.600000            -9.699485             0.063717
H            -7.550000           -10.652112             0.020774
C            -4.900000           -10.911920             0.030716
C            -3.500000           -10.911920             0.095297
H            -5.450000           -11.864548             0.020980
C            -2.800000           -12.124356             0.053449
C            -1.400000           -12.124356             0.043176
H            -3.350000           -13.076984             0.047956
C            -0.700000           -13.336791             0.038559
C             0.700000           -13.336791             0.028730
H            -1.250000           -14.289419             0.058346
C             1.400000           -14.549227             0.061925
C             2.800000           -14.549227             0.018196
H             0.850000           -15.501855             0.079328
H             3.350000           -15.501855             0.015277
