138
isomero_19_20
C             0.700000             1.212436             0.077559
C            -0.700000             1.212436             0.044463
C            -1.400000             0.000000             0.087211
C            -0.700000            -1.212436             0.090566
C             0.700000            -1.212436             0.091724
C             1.400000            -0.000000             0.012109
H             1.250000             2.165064             0.014213
H            -1.250000             2.165064             0.051613
C             2.800000             0.000000             0.028530
C             1.400000            -2.424871             0.050249
C             2.800000            -2.424871             0.005331
C             3.500000            -1.212436             0.047109
H             3.350000             0.952628             0.093011
C             4.900000            -1.212436             0.022221
C             3.500000            -3.637307             0.024753
C             4.900000            -3.637307             0.095740
C             5.600000            -2.424871             0.065816
H             5.450000            -0.259808             0.035121
C             7.000000            -2.424871             0.094402
C             5.600000            -4.849742             0.060695
C             7.000000            -4.849742             0.054005
C             7.700000            -3.637307             0.030479
H             7.550000            -1.472243             0.064842
C             9.100000            -3.637307             0.062240
C             7.700000            -6.062178             0.023729
C             9.100000            -6.062178             0.094505
C             9.800000            -4.849742             0.058504
H             9.650000            -2.684679             0.065737
C            11.200000            -4.849742             0.033345
C             9.800000            -7.274613             0.051547
C            11.200000            -7.274613             0.076558
C            11.900000            -6.062178             0.020398
H            11.750000            -3.897114             0.099383
C            13.300000            -6.062178             0.027718
C            11.900000            -8.487049             0.008659
C            13.300000            -8.487049             0.041733
C            14.000000            -7.274613             0.084938
H            13.850000            -5.109550             0.022864
H            13.850000            -9.439677             0.099189
H            15.100000            -7.274613             0.011682
C            -2.800000             0.000000             0.006008
C            -3.500000            -1.212436             0.004249
C            -2.800000            -2.424871             0.094427
C            -1.400000            -2.424871             0.032455
H            -3.350000             0.952628             0.047044
C            -0.700000            -3.637307             0.058897
C             0.700000            -3.637307             0.099981
C             1.400000            -4.849742             0.005188
C             2.800000            -4.849742             0.029615
C             3.500000            -6.062178             0.059902
C             4.900000            -6.062178             0.069246
C             5.600000            -7.274613             0.027244
C             7.000000            -7.274613             0.091043
C             7.700000            -8.487049             0.096257
C             9.100000            -8.487049             0.078902
C             9.800000            -9.699485             0.092770
C            11.200000            -9.699485             0.031414
H            11.750000           -10.652112             0.088067
C            -4.900000            -1.212436             0.035002
B            -5.600000            -2.424871             0.074493
C            -4.900000            -3.637307             0.022074
C            -3.500000            -3.637307             0.046252
H            -5.450000            -0.259808             0.032441
C            -2.800000            -4.849742             0.029329
C            -1.400000            -4.849742             0.000948
C            -0.700000            -6.062178             0.051921
C             0.700000            -6.062178             0.007283
C             1.400000            -7.274613             0.017910
C             2.800000            -7.274613             0.089286
C             3.500000            -8.487049             0.058313
C             4.900000            -8.487049             0.004261
C             5.600000            -9.699485             0.059999
C             7.000000            -9.699485             0.055049
C             7.700000           -10.911920             0.032924
C             9.100000           -10.911920             0.095753
H             9.650000           -11.864548             0.036778
N            -7.000000            -2.424871             0.067547
C            -7.700000            -3.637307             0.037459
C            -7.000000            -4.849742             0.026835
C            -5.600000            -4.849742             0.087882
H            -7.550000            -1.472243             0.023655
C            -4.900000            -6.062178             0.060128
C            -3.500000            -6.062178             0.048389
C            -2.800000            -7.274613             0.052297
C            -1.400000            -7.274613             0.021291
C            -0.700000            -8.487049             0.010721
C             0.700000            -8.487049             0.075202
C             1.400000            -9.699485             0.090188
C             2.800000            -9.699485             0.047003
C             3.500000           -10.911920             0.044085
C             4.900000           -10.911920             0.000737
C             5.600000           -12.124356             0.074530
C             7.000000           -12.124356             0.030857
H             7.550000           -13.076984             0.055990
C            -9.100000            -3.637307             0.079760
C            -9.800000            -4.849742             0.003786
C            -9.100000            -6.062178             0.063701
C            -7.700000            -6.062178             0.076628
H            -9.650000            -2.684679             0.070693
C            -7.000000            -7.274613             0.081424
C            -5.600000            -7.274613             0.033959
C            -4.900000            -8.487049             0.034360
C            -3.500000            -8.487049             0.074359
C            -2.800000            -9.699485             0.051028
C            -1.400000            -9.699485             0.002094
C            -0.700000           -10.911920             0.049318
C             0.700000           -10.911920             0.033797
C             1.400000           -12.124356             0.090245
C             2.800000           -12.124356             0.066696
C             3.500000           -13.336791             0.080300
C             4.900000           -13.336791             0.097315
H             5.450000           -14.289419             0.039650
C           -11.200000            -4.849742             0.095301
C           -11.900000            -6.062178             0.044375
C           -11.200000            -7.274613             0.028703
C            -9.800000            -7.274613             0.044676
H           -11.750000            -3.897114             0.000129
H           -13.000000            -6.062178             0.030958
H           -11.750000            -8.227241             0.030112
C            -9.100000            -8.487049             0.028798
C            -7.700000            -8.487049             0.003976
H            -9.650000            -9.439677             0.044147
C            -7.000000            -9.699485             0.081889
C            -5.600000            -9.699485             0.081323
H            -7.550000           -10.652112             0.071531
C            -4.900000           -10.911920             0.032878
C            -3.500000           -10.911920             0.020229
H            -5.450000           -11.864548             0.076513
C            -2.800000           -12.124356             0.047429
C            -1.400000           -12.124356             0.017639
H            -3.350000           -13.076984             0.074372
C            -0.700000           -13.336791             0.097059
C             0.700000           -13.336791             0.048830
H            -1.250000           -14.289419             0.022678
C             1.400000           -14.549227             0.068657
C             2.800000           -14.549227             0.030945
H             0.850000           -15.501855             0.032229
H             3.350000           -15.501855             0.037390
