138
isomero_14_13
C             0.700000             1.212436             0.091926
C            -0.700000             1.212436             0.091983
C            -1.400000             0.000000             0.041367
C            -0.700000            -1.212436             0.021688
C             0.700000            -1.212436             0.034255
C             1.400000            -0.000000             0.092004
H             1.250000             2.165064             0.077600
H            -1.250000             2.165064             0.054506
C             2.800000             0.000000             0.004291
C             1.400000            -2.424871             0.043527
C             2.800000            -2.424871             0.029245
C             3.500000            -1.212436             0.026935
H             3.350000             0.952628             0.061099
C             4.900000            -1.212436             0.065184
C             3.500000            -3.637307             0.065688
C             4.900000            -3.637307             0.046162
B             5.600000            -2.424871             0.050320
H             5.450000            -0.259808             0.022690
N             7.000000            -2.424871             0.002904
C             5.600000            -4.849742             0.024590
C             7.000000            -4.849742             0.076712
C             7.700000            -3.637307             0.040845
H             7.550000            -1.472243             0.097813
C             9.100000            -3.637307             0.001920
C             7.700000            -6.062178             0.078462
C             9.100000            -6.062178             0.057283
C             9.800000            -4.849742             0.065934
H             9.650000            -2.684679             0.081023
C            11.200000            -4.849742             0.098876
C             9.800000            -7.274613             0.010344
C            11.200000            -7.274613             0.094750
C            11.900000            -6.062178             0.002958
H            11.750000            -3.897114             0.061900
C            13.300000            -6.062178             0.051125
C            11.900000            -8.487049             0.038995
C            13.300000            -8.487049             0.047572
C            14.000000            -7.274613             0.067291
H            13.850000            -5.109550             0.077423
H            13.850000            -9.439677             0.026063
H            15.100000            -7.274613             0.069869
C            -2.800000             0.000000             0.028416
C            -3.500000            -1.212436             0.099901
C            -2.800000            -2.424871             0.091427
C            -1.400000            -2.424871             0.054365
H            -3.350000             0.952628             0.094977
C            -0.700000            -3.637307             0.060043
C             0.700000            -3.637307             0.049161
C             1.400000            -4.849742             0.064058
C             2.800000            -4.849742             0.063676
C             3.500000            -6.062178             0.088145
C             4.900000            -6.062178             0.047585
C             5.600000            -7.274613             0.098238
C             7.000000            -7.274613             0.030068
C             7.700000            -8.487049             0.097198
C             9.100000            -8.487049             0.000513
C             9.800000            -9.699485             0.018870
C            11.200000            -9.699485             0.073571
H            11.750000           -10.652112             0.082476
C            -4.900000            -1.212436             0.080476
C            -5.600000            -2.424871             0.084930
C            -4.900000            -3.637307             0.083456
C            -3.500000            -3.637307             0.075232
H            -5.450000            -0.259808             0.038355
C            -2.800000            -4.849742             0.078934
C            -1.400000            -4.849742             0.089996
C            -0.700000            -6.062178             0.039622
C             0.700000            -6.062178             0.002748
C             1.400000            -7.274613             0.061808
C             2.800000            -7.274613             0.007645
C             3.500000            -8.487049             0.050052
C             4.900000            -8.487049             0.008887
C             5.600000            -9.699485             0.065903
C             7.000000            -9.699485             0.090152
C             7.700000           -10.911920             0.053411
C             9.100000           -10.911920             0.043653
H             9.650000           -11.864548             0.038791
C            -7.000000            -2.424871             0.029305
C            -7.700000            -3.637307             0.023543
C            -7.000000            -4.849742             0.032504
C            -5.600000            -4.849742             0.091939
H            -7.550000            -1.472243             0.006643
C            -4.900000            -6.062178             0.064159
C            -3.500000            -6.062178             0.044104
C            -2.800000            -7.274613             0.089281
C            -1.400000            -7.274613             0.096676
C            -0.700000            -8.487049             0.087232
C             0.700000            -8.487049             0.044394
C             1.400000            -9.699485             0.070683
C             2.800000            -9.699485             0.062442
C             3.500000           -10.911920             0.018484
C             4.900000           -10.911920             0.049316
C             5.600000           -12.124356             0.044674
C             7.000000           -12.124356             0.077644
H             7.550000           -13.076984             0.006775
C            -9.100000            -3.637307             0.079185
C            -9.800000            -4.849742             0.004859
C            -9.100000            -6.062178             0.022331
C            -7.700000            -6.062178             0.007586
H            -9.650000            -2.684679             0.048978
C            -7.000000            -7.274613             0.066583
C            -5.600000            -7.274613             0.060707
C            -4.900000            -8.487049             0.015919
C            -3.500000            -8.487049             0.018877
C            -2.800000            -9.699485             0.068047
C            -1.400000            -9.699485             0.064172
C            -0.700000           -10.911920             0.020992
C             0.700000           -10.911920             0.058030
C             1.400000           -12.124356             0.011238
C             2.800000           -12.124356             0.045729
C             3.500000           -13.336791             0.059603
C             4.900000           -13.336791             0.049739
H             5.450000           -14.289419             0.018210
C           -11.200000            -4.849742             0.081760
C           -11.900000            -6.062178             0.052248
C           -11.200000            -7.274613             0.013605
C            -9.800000            -7.274613             0.013811
H           -11.750000            -3.897114             0.057100
H           -13.000000            -6.062178             0.061156
H           -11.750000            -8.227241             0.001765
C            -9.100000            -8.487049             0.062291
C            -7.700000            -8.487049             0.011203
H            -9.650000            -9.439677             0.096531
C            -7.000000            -9.699485             0.090190
C            -5.600000            -9.699485             0.046741
H            -7.550000           -10.652112             0.077653
C            -4.900000           -10.911920             0.058543
C            -3.500000           -10.911920             0.027760
H            -5.450000           -11.864548             0.049171
C            -2.800000           -12.124356             0.010643
C            -1.400000           -12.124356             0.050450
H            -3.350000           -13.076984             0.095243
C            -0.700000           -13.336791             0.093613
C             0.700000           -13.336791             0.072735
H            -1.250000           -14.289419             0.045941
C             1.400000           -14.549227             0.023542
C             2.800000           -14.549227             0.070362
H             0.850000           -15.501855             0.090335
H             3.350000           -15.501855             0.037899
