138
isomero_33_34
C             0.700000             1.212436             0.025481
C            -0.700000             1.212436             0.096393
C            -1.400000             0.000000             0.042096
C            -0.700000            -1.212436             0.092219
C             0.700000            -1.212436             0.041385
C             1.400000            -0.000000             0.042857
H             1.250000             2.165064             0.093954
H            -1.250000             2.165064             0.065610
C             2.800000             0.000000             0.067742
C             1.400000            -2.424871             0.013922
C             2.800000            -2.424871             0.071120
C             3.500000            -1.212436             0.012215
H             3.350000             0.952628             0.028684
C             4.900000            -1.212436             0.005132
C             3.500000            -3.637307             0.035615
C             4.900000            -3.637307             0.072898
C             5.600000            -2.424871             0.073037
H             5.450000            -0.259808             0.068404
C             7.000000            -2.424871             0.087248
N             5.600000            -4.849742             0.023499
B             7.000000            -4.849742             0.071543
C             7.700000            -3.637307             0.066277
H             7.550000            -1.472243             0.005522
C             9.100000            -3.637307             0.045853
C             7.700000            -6.062178             0.038322
C             9.100000            -6.062178             0.043453
C             9.800000            -4.849742             0.069274
H             9.650000            -2.684679             0.082081
C            11.200000            -4.849742             0.027419
C             9.800000            -7.274613             0.064160
C            11.200000            -7.274613             0.035101
C            11.900000            -6.062178             0.034482
H            11.750000            -3.897114             0.035911
C            13.300000            -6.062178             0.025541
C            11.900000            -8.487049             0.019324
C            13.300000            -8.487049             0.081203
C            14.000000            -7.274613             0.043413
H            13.850000            -5.109550             0.079733
H            13.850000            -9.439677             0.087808
H            15.100000            -7.274613             0.034231
C            -2.800000             0.000000             0.090867
C            -3.500000            -1.212436             0.013468
C            -2.800000            -2.424871             0.070742
C            -1.400000            -2.424871             0.056749
H            -3.350000             0.952628             0.097194
C            -0.700000            -3.637307             0.002916
C             0.700000            -3.637307             0.062388
C             1.400000            -4.849742             0.042924
C             2.800000            -4.849742             0.046667
C             3.500000            -6.062178             0.043457
C             4.900000            -6.062178             0.042564
C             5.600000            -7.274613             0.043732
C             7.000000            -7.274613             0.060361
C             7.700000            -8.487049             0.025929
C             9.100000            -8.487049             0.032366
C             9.800000            -9.699485             0.002435
C            11.200000            -9.699485             0.077821
H            11.750000           -10.652112             0.033981
C            -4.900000            -1.212436             0.069518
C            -5.600000            -2.424871             0.001801
C            -4.900000            -3.637307             0.087085
C            -3.500000            -3.637307             0.081815
H            -5.450000            -0.259808             0.067320
C            -2.800000            -4.849742             0.017402
C            -1.400000            -4.849742             0.085033
C            -0.700000            -6.062178             0.089681
C             0.700000            -6.062178             0.082618
C             1.400000            -7.274613             0.069230
C             2.800000            -7.274613             0.065203
C             3.500000            -8.487049             0.026559
C             4.900000            -8.487049             0.016188
C             5.600000            -9.699485             0.010279
C             7.000000            -9.699485             0.055933
C             7.700000           -10.911920             0.026276
C             9.100000           -10.911920             0.059125
H             9.650000           -11.864548             0.040304
C            -7.000000            -2.424871             0.081459
C            -7.700000            -3.637307             0.058076
C            -7.000000            -4.849742             0.096067
C            -5.600000            -4.849742             0.003909
H            -7.550000            -1.472243             0.048675
C            -4.900000            -6.062178             0.036219
C            -3.500000            -6.062178             0.059776
C            -2.800000            -7.274613             0.010775
C            -1.400000            -7.274613             0.003446
C            -0.700000            -8.487049             0.047395
C             0.700000            -8.487049             0.078685
C             1.400000            -9.699485             0.005518
C             2.800000            -9.699485             0.007836
C             3.500000           -10.911920             0.008450
C             4.900000           -10.911920             0.038786
C             5.600000           -12.124356             0.050208
C             7.000000           -12.124356             0.028943
H             7.550000           -13.076984             0.017879
C            -9.100000            -3.637307             0.024327
C            -9.800000            -4.849742             0.049874
C            -9.100000            -6.062178             0.096366
C            -7.700000            -6.062178             0.044804
H            -9.650000            -2.684679             0.074796
C            -7.000000            -7.274613             0.041505
C            -5.600000            -7.274613             0.033830
C            -4.900000            -8.487049             0.088175
C            -3.500000            -8.487049             0.095961
C            -2.800000            -9.699485             0.016138
C            -1.400000            -9.699485             0.083092
C            -0.700000           -10.911920             0.059084
C             0.700000           -10.911920             0.086020
C             1.400000           -12.124356             0.001833
C             2.800000           -12.124356             0.057987
C             3.500000           -13.336791             0.061603
C             4.900000           -13.336791             0.039133
H             5.450000           -14.289419             0.058712
C           -11.200000            -4.849742             0.063834
C           -11.900000            -6.062178             0.014210
C           -11.200000            -7.274613             0.021487
C            -9.800000            -7.274613             0.084142
H           -11.750000            -3.897114             0.089578
H           -13.000000            -6.062178             0.045627
H           -11.750000            -8.227241             0.004356
C            -9.100000            -8.487049             0.064721
C            -7.700000            -8.487049             0.085030
H            -9.650000            -9.439677             0.095965
C            -7.000000            -9.699485             0.057431
C            -5.600000            -9.699485             0.022625
H            -7.550000           -10.652112             0.074154
C            -4.900000           -10.911920             0.021971
C            -3.500000           -10.911920             0.056236
H            -5.450000           -11.864548             0.054308
C            -2.800000           -12.124356             0.070564
C            -1.400000           -12.124356             0.064870
H            -3.350000           -13.076984             0.041454
C            -0.700000           -13.336791             0.000866
C             0.700000           -13.336791             0.071574
H            -1.250000           -14.289419             0.069373
C             1.400000           -14.549227             0.093987
C             2.800000           -14.549227             0.064686
H             0.850000           -15.501855             0.004886
H             3.350000           -15.501855             0.023557
