138
isomero_22_21
C             0.700000             1.212436             0.059910
C            -0.700000             1.212436             0.056791
C            -1.400000             0.000000             0.082837
C            -0.700000            -1.212436             0.040144
C             0.700000            -1.212436             0.068172
C             1.400000            -0.000000             0.026979
H             1.250000             2.165064             0.094836
H            -1.250000             2.165064             0.070228
C             2.800000             0.000000             0.066126
C             1.400000            -2.424871             0.010335
C             2.800000            -2.424871             0.013310
C             3.500000            -1.212436             0.026050
H             3.350000             0.952628             0.083331
C             4.900000            -1.212436             0.042608
C             3.500000            -3.637307             0.049946
C             4.900000            -3.637307             0.018667
C             5.600000            -2.424871             0.023492
H             5.450000            -0.259808             0.007781
C             7.000000            -2.424871             0.087135
C             5.600000            -4.849742             0.089087
C             7.000000            -4.849742             0.095834
B             7.700000            -3.637307             0.086250
H             7.550000            -1.472243             0.032423
N             9.100000            -3.637307             0.074640
C             7.700000            -6.062178             0.034046
C             9.100000            -6.062178             0.071087
C             9.800000            -4.849742             0.020267
H             9.650000            -2.684679             0.027814
C            11.200000            -4.849742             0.057230
C             9.800000            -7.274613             0.012039
C            11.200000            -7.274613             0.071641
C            11.900000            -6.062178             0.099892
H            11.750000            -3.897114             0.019792
C            13.300000            -6.062178             0.022257
C            11.900000            -8.487049             0.087803
C            13.300000            -8.487049             0.038397
C            14.000000            -7.274613             0.000085
H            13.850000            -5.109550             0.032117
H            13.850000            -9.439677             0.006043
H            15.100000            -7.274613             0.055895
C            -2.800000             0.000000             0.063190
C            -3.500000            -1.212436             0.042346
C            -2.800000            -2.424871             0.002557
C            -1.400000            -2.424871             0.087133
H            -3.350000             0.952628             0.061005
C            -0.700000            -3.637307             0.086142
C             0.700000            -3.637307             0.060395
C             1.400000            -4.849742             0.001001
C             2.800000            -4.849742             0.012252
C             3.500000            -6.062178             0.052896
C             4.900000            -6.062178             0.043088
C             5.600000            -7.274613             0.053184
C             7.000000            -7.274613             0.040894
C             7.700000            -8.487049             0.084586
C             9.100000            -8.487049             0.051411
C             9.800000            -9.699485             0.079604
C            11.200000            -9.699485             0.003645
H            11.750000           -10.652112             0.058042
C            -4.900000            -1.212436             0.016948
C            -5.600000            -2.424871             0.060588
C            -4.900000            -3.637307             0.030488
C            -3.500000            -3.637307             0.060516
H            -5.450000            -0.259808             0.094825
C            -2.800000            -4.849742             0.006895
C            -1.400000            -4.849742             0.050047
C            -0.700000            -6.062178             0.036696
C             0.700000            -6.062178             0.033517
C             1.400000            -7.274613             0.020948
C             2.800000            -7.274613             0.095516
C             3.500000            -8.487049             0.010535
C             4.900000            -8.487049             0.066451
C             5.600000            -9.699485             0.041324
C             7.000000            -9.699485             0.033321
C             7.700000           -10.911920             0.033962
C             9.100000           -10.911920             0.004901
H             9.650000           -11.864548             0.086528
C            -7.000000            -2.424871             0.097437
C            -7.700000            -3.637307             0.049332
C            -7.000000            -4.849742             0.008862
C            -5.600000            -4.849742             0.041358
H            -7.550000            -1.472243             0.077758
C            -4.900000            -6.062178             0.006148
C            -3.500000            -6.062178             0.000239
C            -2.800000            -7.274613             0.023004
C            -1.400000            -7.274613             0.039059
C            -0.700000            -8.487049             0.014850
C             0.700000            -8.487049             0.071438
C             1.400000            -9.699485             0.061752
C             2.800000            -9.699485             0.006570
C             3.500000           -10.911920             0.014215
C             4.900000           -10.911920             0.087073
C             5.600000           -12.124356             0.039878
C             7.000000           -12.124356             0.095539
H             7.550000           -13.076984             0.077905
C            -9.100000            -3.637307             0.073251
C            -9.800000            -4.849742             0.080374
C            -9.100000            -6.062178             0.024638
C            -7.700000            -6.062178             0.077468
H            -9.650000            -2.684679             0.095299
C            -7.000000            -7.274613             0.096837
C            -5.600000            -7.274613             0.073234
C            -4.900000            -8.487049             0.016990
C            -3.500000            -8.487049             0.008426
C            -2.800000            -9.699485             0.072901
C            -1.400000            -9.699485             0.026011
C            -0.700000           -10.911920             0.009885
C             0.700000           -10.911920             0.091658
C             1.400000           -12.124356             0.053223
C             2.800000           -12.124356             0.055456
C             3.500000           -13.336791             0.069052
C             4.900000           -13.336791             0.004170
H             5.450000           -14.289419             0.096415
C           -11.200000            -4.849742             0.068780
C           -11.900000            -6.062178             0.071747
C           -11.200000            -7.274613             0.036114
C            -9.800000            -7.274613             0.005658
H           -11.750000            -3.897114             0.093152
H           -13.000000            -6.062178             0.082925
H           -11.750000            -8.227241             0.090403
C            -9.100000            -8.487049             0.005918
C            -7.700000            -8.487049             0.025774
H            -9.650000            -9.439677             0.079539
C            -7.000000            -9.699485             0.001466
C            -5.600000            -9.699485             0.009613
H            -7.550000           -10.652112             0.009474
C            -4.900000           -10.911920             0.055531
C            -3.500000           -10.911920             0.051390
H            -5.450000           -11.864548             0.012477
C            -2.800000           -12.124356             0.041592
C            -1.400000           -12.124356             0.048756
H            -3.350000           -13.076984             0.010165
C            -0.700000           -13.336791             0.013592
C             0.700000           -13.336791             0.089429
H            -1.250000           -14.289419             0.027408
C             1.400000           -14.549227             0.075954
C             2.800000           -14.549227             0.063483
H             0.850000           -15.501855             0.080175
H             3.350000           -15.501855             0.062152
