138
isomero_53_54
C             0.700000             1.212436             0.034981
C            -0.700000             1.212436             0.058107
C            -1.400000             0.000000             0.094905
C            -0.700000            -1.212436             0.070637
C             0.700000            -1.212436             0.033110
C             1.400000            -0.000000             0.074216
H             1.250000             2.165064             0.005883
H            -1.250000             2.165064             0.046829
C             2.800000             0.000000             0.055112
C             1.400000            -2.424871             0.067477
C             2.800000            -2.424871             0.049102
C             3.500000            -1.212436             0.068164
H             3.350000             0.952628             0.020888
C             4.900000            -1.212436             0.056897
C             3.500000            -3.637307             0.039889
C             4.900000            -3.637307             0.023931
C             5.600000            -2.424871             0.017209
H             5.450000            -0.259808             0.065951
C             7.000000            -2.424871             0.056721
C             5.600000            -4.849742             0.018465
C             7.000000            -4.849742             0.007229
C             7.700000            -3.637307             0.037266
H             7.550000            -1.472243             0.097272
C             9.100000            -3.637307             0.089499
C             7.700000            -6.062178             0.010441
C             9.100000            -6.062178             0.091073
C             9.800000            -4.849742             0.058696
H             9.650000            -2.684679             0.084240
C            11.200000            -4.849742             0.029827
C             9.800000            -7.274613             0.077951
C            11.200000            -7.274613             0.092016
C            11.900000            -6.062178             0.051841
H            11.750000            -3.897114             0.079499
C            13.300000            -6.062178             0.065576
C            11.900000            -8.487049             0.050185
C            13.300000            -8.487049             0.033150
C            14.000000            -7.274613             0.024860
H            13.850000            -5.109550             0.076573
H            13.850000            -9.439677             0.035340
H            15.100000            -7.274613             0.025925
C            -2.800000             0.000000             0.037669
C            -3.500000            -1.212436             0.015389
C            -2.800000            -2.424871             0.085343
C            -1.400000            -2.424871             0.051686
H            -3.350000             0.952628             0.015237
C            -0.700000            -3.637307             0.023309
C             0.700000            -3.637307             0.001876
C             1.400000            -4.849742             0.079971
C             2.800000            -4.849742             0.066658
C             3.500000            -6.062178             0.054570
C             4.900000            -6.062178             0.061103
C             5.600000            -7.274613             0.029184
C             7.000000            -7.274613             0.045260
C             7.700000            -8.487049             0.050360
C             9.100000            -8.487049             0.052042
C             9.800000            -9.699485             0.026199
C            11.200000            -9.699485             0.055759
H            11.750000           -10.652112             0.019497
C            -4.900000            -1.212436             0.067588
C            -5.600000            -2.424871             0.053487
C            -4.900000            -3.637307             0.073168
C            -3.500000            -3.637307             0.093005
H            -5.450000            -0.259808             0.009637
C            -2.800000            -4.849742             0.016454
C            -1.400000            -4.849742             0.075660
C            -0.700000            -6.062178             0.028232
C             0.700000            -6.062178             0.052896
C             1.400000            -7.274613             0.024761
C             2.800000            -7.274613             0.000210
C             3.500000            -8.487049             0.085584
C             4.900000            -8.487049             0.021311
C             5.600000            -9.699485             0.044065
C             7.000000            -9.699485             0.079890
C             7.700000           -10.911920             0.002952
C             9.100000           -10.911920             0.010996
H             9.650000           -11.864548             0.011644
C            -7.000000            -2.424871             0.003662
C            -7.700000            -3.637307             0.075268
C            -7.000000            -4.849742             0.040141
C            -5.600000            -4.849742             0.019818
H            -7.550000            -1.472243             0.017223
C            -4.900000            -6.062178             0.065132
C            -3.500000            -6.062178             0.052998
C            -2.800000            -7.274613             0.070368
C            -1.400000            -7.274613             0.090830
C            -0.700000            -8.487049             0.016634
C             0.700000            -8.487049             0.065399
C             1.400000            -9.699485             0.023165
C             2.800000            -9.699485             0.089978
C             3.500000           -10.911920             0.065646
C             4.900000           -10.911920             0.010351
C             5.600000           -12.124356             0.092678
C             7.000000           -12.124356             0.001019
H             7.550000           -13.076984             0.038635
C            -9.100000            -3.637307             0.064316
C            -9.800000            -4.849742             0.021395
N            -9.100000            -6.062178             0.025613
B            -7.700000            -6.062178             0.066657
H            -9.650000            -2.684679             0.046966
C            -7.000000            -7.274613             0.059094
C            -5.600000            -7.274613             0.067001
C            -4.900000            -8.487049             0.075655
C            -3.500000            -8.487049             0.096719
C            -2.800000            -9.699485             0.084790
C            -1.400000            -9.699485             0.035613
C            -0.700000           -10.911920             0.004044
C             0.700000           -10.911920             0.092669
C             1.400000           -12.124356             0.028404
C             2.800000           -12.124356             0.012535
C             3.500000           -13.336791             0.013401
C             4.900000           -13.336791             0.063465
H             5.450000           -14.289419             0.062655
C           -11.200000            -4.849742             0.066315
C           -11.900000            -6.062178             0.051534
C           -11.200000            -7.274613             0.014260
C            -9.800000            -7.274613             0.009743
H           -11.750000            -3.897114             0.038156
H           -13.000000            -6.062178             0.042944
H           -11.750000            -8.227241             0.086227
C            -9.100000            -8.487049             0.010146
C            -7.700000            -8.487049             0.004919
H            -9.650000            -9.439677             0.089963
C            -7.000000            -9.699485             0.096365
C            -5.600000            -9.699485             0.011619
H            -7.550000           -10.652112             0.082275
C            -4.900000           -10.911920             0.009033
C            -3.500000           -10.911920             0.077156
H            -5.450000           -11.864548             0.018424
C            -2.800000           -12.124356             0.050052
C            -1.400000           -12.124356             0.010372
H            -3.350000           -13.076984             0.004602
C            -0.700000           -13.336791             0.036160
C             0.700000           -13.336791             0.071513
H            -1.250000           -14.289419             0.021438
C             1.400000           -14.549227             0.002983
C             2.800000           -14.549227             0.012702
H             0.850000           -15.501855             0.056520
H             3.350000           -15.501855             0.053851
