138
isomero_38_51
C             0.700000             1.212436             0.019911
C            -0.700000             1.212436             0.093951
C            -1.400000             0.000000             0.088375
C            -0.700000            -1.212436             0.016053
C             0.700000            -1.212436             0.056810
C             1.400000            -0.000000             0.011880
H             1.250000             2.165064             0.085371
H            -1.250000             2.165064             0.022255
C             2.800000             0.000000             0.061153
C             1.400000            -2.424871             0.093739
C             2.800000            -2.424871             0.092510
C             3.500000            -1.212436             0.083943
H             3.350000             0.952628             0.046170
C             4.900000            -1.212436             0.001843
C             3.500000            -3.637307             0.064275
C             4.900000            -3.637307             0.035342
C             5.600000            -2.424871             0.082082
H             5.450000            -0.259808             0.077285
C             7.000000            -2.424871             0.078126
C             5.600000            -4.849742             0.038285
C             7.000000            -4.849742             0.072192
C             7.700000            -3.637307             0.037799
H             7.550000            -1.472243             0.093286
C             9.100000            -3.637307             0.017590
C             7.700000            -6.062178             0.023500
C             9.100000            -6.062178             0.080681
C             9.800000            -4.849742             0.069477
H             9.650000            -2.684679             0.091757
C            11.200000            -4.849742             0.058606
C             9.800000            -7.274613             0.050603
C            11.200000            -7.274613             0.002716
C            11.900000            -6.062178             0.023766
H            11.750000            -3.897114             0.056084
C            13.300000            -6.062178             0.054248
C            11.900000            -8.487049             0.020837
C            13.300000            -8.487049             0.069186
C            14.000000            -7.274613             0.032256
H            13.850000            -5.109550             0.050087
H            13.850000            -9.439677             0.070607
H            15.100000            -7.274613             0.097383
C            -2.800000             0.000000             0.085110
C            -3.500000            -1.212436             0.004276
C            -2.800000            -2.424871             0.076402
C            -1.400000            -2.424871             0.014358
H            -3.350000             0.952628             0.095350
C            -0.700000            -3.637307             0.057555
C             0.700000            -3.637307             0.027206
C             1.400000            -4.849742             0.003186
C             2.800000            -4.849742             0.012383
C             3.500000            -6.062178             0.004497
C             4.900000            -6.062178             0.046807
C             5.600000            -7.274613             0.022285
C             7.000000            -7.274613             0.039605
C             7.700000            -8.487049             0.022511
C             9.100000            -8.487049             0.084639
C             9.800000            -9.699485             0.096284
C            11.200000            -9.699485             0.035066
H            11.750000           -10.652112             0.005962
C            -4.900000            -1.212436             0.007488
C            -5.600000            -2.424871             0.052612
C            -4.900000            -3.637307             0.025556
C            -3.500000            -3.637307             0.041354
H            -5.450000            -0.259808             0.052071
B            -2.800000            -4.849742             0.025025
C            -1.400000            -4.849742             0.020483
C            -0.700000            -6.062178             0.081662
C             0.700000            -6.062178             0.043505
C             1.400000            -7.274613             0.083749
C             2.800000            -7.274613             0.025286
C             3.500000            -8.487049             0.038951
C             4.900000            -8.487049             0.002143
C             5.600000            -9.699485             0.054951
C             7.000000            -9.699485             0.095236
C             7.700000           -10.911920             0.069349
C             9.100000           -10.911920             0.081193
H             9.650000           -11.864548             0.078930
C            -7.000000            -2.424871             0.036513
C            -7.700000            -3.637307             0.034834
C            -7.000000            -4.849742             0.004577
C            -5.600000            -4.849742             0.034968
H            -7.550000            -1.472243             0.018787
C            -4.900000            -6.062178             0.022142
N            -3.500000            -6.062178             0.099272
C            -2.800000            -7.274613             0.022341
C            -1.400000            -7.274613             0.007137
C            -0.700000            -8.487049             0.018715
C             0.700000            -8.487049             0.052931
C             1.400000            -9.699485             0.096627
C             2.800000            -9.699485             0.065360
C             3.500000           -10.911920             0.071679
C             4.900000           -10.911920             0.052344
C             5.600000           -12.124356             0.062348
C             7.000000           -12.124356             0.083077
H             7.550000           -13.076984             0.031075
C            -9.100000            -3.637307             0.040897
C            -9.800000            -4.849742             0.022446
C            -9.100000            -6.062178             0.002506
C            -7.700000            -6.062178             0.070482
H            -9.650000            -2.684679             0.035414
C            -7.000000            -7.274613             0.021623
C            -5.600000            -7.274613             0.022646
C            -4.900000            -8.487049             0.054300
C            -3.500000            -8.487049             0.040619
C            -2.800000            -9.699485             0.047978
C            -1.400000            -9.699485             0.090000
C            -0.700000           -10.911920             0.025898
C             0.700000           -10.911920             0.098813
C             1.400000           -12.124356             0.098490
C             2.800000           -12.124356             0.080599
C             3.500000           -13.336791             0.044319
C             4.900000           -13.336791             0.018944
H             5.450000           -14.289419             0.078135
C           -11.200000            -4.849742             0.099015
C           -11.900000            -6.062178             0.014877
C           -11.200000            -7.274613             0.040889
C            -9.800000            -7.274613             0.025558
H           -11.750000            -3.897114             0.060743
H           -13.000000            -6.062178             0.054653
H           -11.750000            -8.227241             0.061221
C            -9.100000            -8.487049             0.074427
C            -7.700000            -8.487049             0.010740
H            -9.650000            -9.439677             0.097747
C            -7.000000            -9.699485             0.069713
C            -5.600000            -9.699485             0.000572
H            -7.550000           -10.652112             0.086351
C            -4.900000           -10.911920             0.067787
C            -3.500000           -10.911920             0.000471
H            -5.450000           -11.864548             0.043401
C            -2.800000           -12.124356             0.022799
C            -1.400000           -12.124356             0.041159
H            -3.350000           -13.076984             0.014950
C            -0.700000           -13.336791             0.024696
C             0.700000           -13.336791             0.016157
H            -1.250000           -14.289419             0.008356
C             1.400000           -14.549227             0.073583
C             2.800000           -14.549227             0.032500
H             0.850000           -15.501855             0.084146
H             3.350000           -15.501855             0.018685
