138
isomero_54_41
C             0.700000             1.212436             0.049083
C            -0.700000             1.212436             0.019944
C            -1.400000             0.000000             0.086364
C            -0.700000            -1.212436             0.025481
C             0.700000            -1.212436             0.018254
C             1.400000            -0.000000             0.024355
H             1.250000             2.165064             0.035766
H            -1.250000             2.165064             0.004415
C             2.800000             0.000000             0.065283
C             1.400000            -2.424871             0.082493
C             2.800000            -2.424871             0.069510
C             3.500000            -1.212436             0.017554
H             3.350000             0.952628             0.089336
C             4.900000            -1.212436             0.045609
C             3.500000            -3.637307             0.056160
C             4.900000            -3.637307             0.094947
C             5.600000            -2.424871             0.080407
H             5.450000            -0.259808             0.036840
C             7.000000            -2.424871             0.037080
C             5.600000            -4.849742             0.094881
C             7.000000            -4.849742             0.025094
C             7.700000            -3.637307             0.034118
H             7.550000            -1.472243             0.095854
C             9.100000            -3.637307             0.038914
C             7.700000            -6.062178             0.071641
C             9.100000            -6.062178             0.072637
C             9.800000            -4.849742             0.018692
H             9.650000            -2.684679             0.040597
C            11.200000            -4.849742             0.038716
C             9.800000            -7.274613             0.053158
C            11.200000            -7.274613             0.003725
C            11.900000            -6.062178             0.095784
H            11.750000            -3.897114             0.064229
C            13.300000            -6.062178             0.015142
C            11.900000            -8.487049             0.058352
C            13.300000            -8.487049             0.023655
C            14.000000            -7.274613             0.092456
H            13.850000            -5.109550             0.065381
H            13.850000            -9.439677             0.000902
H            15.100000            -7.274613             0.047161
C            -2.800000             0.000000             0.000943
C            -3.500000            -1.212436             0.042865
C            -2.800000            -2.424871             0.077800
C            -1.400000            -2.424871             0.051110
H            -3.350000             0.952628             0.079040
C            -0.700000            -3.637307             0.006483
C             0.700000            -3.637307             0.099110
C             1.400000            -4.849742             0.066165
C             2.800000            -4.849742             0.004858
C             3.500000            -6.062178             0.046099
C             4.900000            -6.062178             0.056476
C             5.600000            -7.274613             0.013330
C             7.000000            -7.274613             0.084820
C             7.700000            -8.487049             0.081822
C             9.100000            -8.487049             0.040284
C             9.800000            -9.699485             0.013617
C            11.200000            -9.699485             0.008981
H            11.750000           -10.652112             0.077720
C            -4.900000            -1.212436             0.015571
C            -5.600000            -2.424871             0.019686
C            -4.900000            -3.637307             0.003530
C            -3.500000            -3.637307             0.017774
H            -5.450000            -0.259808             0.000711
C            -2.800000            -4.849742             0.022162
C            -1.400000            -4.849742             0.045105
C            -0.700000            -6.062178             0.046508
C             0.700000            -6.062178             0.066450
C             1.400000            -7.274613             0.033306
C             2.800000            -7.274613             0.087292
C             3.500000            -8.487049             0.010234
C             4.900000            -8.487049             0.022452
C             5.600000            -9.699485             0.029620
C             7.000000            -9.699485             0.033922
C             7.700000           -10.911920             0.045971
C             9.100000           -10.911920             0.002287
H             9.650000           -11.864548             0.039753
C            -7.000000            -2.424871             0.051809
C            -7.700000            -3.637307             0.012081
C            -7.000000            -4.849742             0.052926
C            -5.600000            -4.849742             0.014485
H            -7.550000            -1.472243             0.030972
C            -4.900000            -6.062178             0.067756
C            -3.500000            -6.062178             0.000520
C            -2.800000            -7.274613             0.003174
C            -1.400000            -7.274613             0.000746
C            -0.700000            -8.487049             0.016505
C             0.700000            -8.487049             0.010327
C             1.400000            -9.699485             0.020359
C             2.800000            -9.699485             0.009617
C             3.500000           -10.911920             0.050551
C             4.900000           -10.911920             0.091683
C             5.600000           -12.124356             0.030987
C             7.000000           -12.124356             0.074995
H             7.550000           -13.076984             0.004060
C            -9.100000            -3.637307             0.060482
N            -9.800000            -4.849742             0.093473
B            -9.100000            -6.062178             0.020270
C            -7.700000            -6.062178             0.028542
H            -9.650000            -2.684679             0.042292
C            -7.000000            -7.274613             0.087571
C            -5.600000            -7.274613             0.025009
C            -4.900000            -8.487049             0.063220
C            -3.500000            -8.487049             0.000135
C            -2.800000            -9.699485             0.079845
C            -1.400000            -9.699485             0.081506
C            -0.700000           -10.911920             0.048754
C             0.700000           -10.911920             0.018966
C             1.400000           -12.124356             0.040295
C             2.800000           -12.124356             0.007790
C             3.500000           -13.336791             0.077273
C             4.900000           -13.336791             0.067945
H             5.450000           -14.289419             0.076269
C           -11.200000            -4.849742             0.011816
C           -11.900000            -6.062178             0.061647
C           -11.200000            -7.274613             0.010018
C            -9.800000            -7.274613             0.041239
H           -11.750000            -3.897114             0.054826
H           -13.000000            -6.062178             0.022207
H           -11.750000            -8.227241             0.043993
C            -9.100000            -8.487049             0.047526
C            -7.700000            -8.487049             0.014549
H            -9.650000            -9.439677             0.000056
C            -7.000000            -9.699485             0.037961
C            -5.600000            -9.699485             0.006947
H            -7.550000           -10.652112             0.027258
C            -4.900000           -10.911920             0.082293
C            -3.500000           -10.911920             0.056653
H            -5.450000           -11.864548             0.052949
C            -2.800000           -12.124356             0.062672
C            -1.400000           -12.124356             0.010546
H            -3.350000           -13.076984             0.073130
C            -0.700000           -13.336791             0.044731
C             0.700000           -13.336791             0.090665
H            -1.250000           -14.289419             0.096816
C             1.400000           -14.549227             0.026071
C             2.800000           -14.549227             0.061177
H             0.850000           -15.501855             0.002519
H             3.350000           -15.501855             0.084728
