138
isomero_56_43
C             0.700000             1.212436             0.058894
C            -0.700000             1.212436             0.029189
C            -1.400000             0.000000             0.025608
C            -0.700000            -1.212436             0.055237
C             0.700000            -1.212436             0.009557
C             1.400000            -0.000000             0.052931
H             1.250000             2.165064             0.013789
H            -1.250000             2.165064             0.017761
C             2.800000             0.000000             0.028501
C             1.400000            -2.424871             0.034801
C             2.800000            -2.424871             0.052540
C             3.500000            -1.212436             0.084781
H             3.350000             0.952628             0.023607
C             4.900000            -1.212436             0.063523
C             3.500000            -3.637307             0.029876
C             4.900000            -3.637307             0.054870
C             5.600000            -2.424871             0.073090
H             5.450000            -0.259808             0.090171
C             7.000000            -2.424871             0.094639
C             5.600000            -4.849742             0.040185
C             7.000000            -4.849742             0.012054
C             7.700000            -3.637307             0.030923
H             7.550000            -1.472243             0.046569
C             9.100000            -3.637307             0.048921
C             7.700000            -6.062178             0.014156
C             9.100000            -6.062178             0.093567
C             9.800000            -4.849742             0.029680
H             9.650000            -2.684679             0.006961
C            11.200000            -4.849742             0.091891
C             9.800000            -7.274613             0.057074
C            11.200000            -7.274613             0.027473
C            11.900000            -6.062178             0.092471
H            11.750000            -3.897114             0.014532
N            13.300000            -6.062178             0.039300
C            11.900000            -8.487049             0.060481
C            13.300000            -8.487049             0.016725
B            14.000000            -7.274613             0.009897
H            13.850000            -5.109550             0.074145
H            13.850000            -9.439677             0.093740
H            15.100000            -7.274613             0.099117
C            -2.800000             0.000000             0.060632
C            -3.500000            -1.212436             0.027011
C            -2.800000            -2.424871             0.082072
C            -1.400000            -2.424871             0.058521
H            -3.350000             0.952628             0.045336
C            -0.700000            -3.637307             0.079457
C             0.700000            -3.637307             0.036822
C             1.400000            -4.849742             0.075374
C             2.800000            -4.849742             0.064539
C             3.500000            -6.062178             0.058528
C             4.900000            -6.062178             0.058580
C             5.600000            -7.274613             0.003281
C             7.000000            -7.274613             0.036187
C             7.700000            -8.487049             0.089707
C             9.100000            -8.487049             0.098841
C             9.800000            -9.699485             0.058602
C            11.200000            -9.699485             0.023385
H            11.750000           -10.652112             0.057045
C            -4.900000            -1.212436             0.008204
C            -5.600000            -2.424871             0.054446
C            -4.900000            -3.637307             0.002191
C            -3.500000            -3.637307             0.071644
H            -5.450000            -0.259808             0.001025
C            -2.800000            -4.849742             0.088737
C            -1.400000            -4.849742             0.042920
C            -0.700000            -6.062178             0.046305
C             0.700000            -6.062178             0.062040
C             1.400000            -7.274613             0.009274
C             2.800000            -7.274613             0.094812
C             3.500000            -8.487049             0.028027
C             4.900000            -8.487049             0.023236
C             5.600000            -9.699485             0.026579
C             7.000000            -9.699485             0.057227
C             7.700000           -10.911920             0.089773
C             9.100000           -10.911920             0.055458
H             9.650000           -11.864548             0.076278
C            -7.000000            -2.424871             0.014759
C            -7.700000            -3.637307             0.044212
C            -7.000000            -4.849742             0.029097
C            -5.600000            -4.849742             0.089231
H            -7.550000            -1.472243             0.023222
C            -4.900000            -6.062178             0.008896
C            -3.500000            -6.062178             0.030985
C            -2.800000            -7.274613             0.009726
C            -1.400000            -7.274613             0.039283
C            -0.700000            -8.487049             0.013847
C             0.700000            -8.487049             0.060934
C             1.400000            -9.699485             0.088719
C             2.800000            -9.699485             0.045140
C             3.500000           -10.911920             0.049531
C             4.900000           -10.911920             0.047345
C             5.600000           -12.124356             0.019529
C             7.000000           -12.124356             0.094558
H             7.550000           -13.076984             0.026464
C            -9.100000            -3.637307             0.056455
C            -9.800000            -4.849742             0.064003
C            -9.100000            -6.062178             0.088162
C            -7.700000            -6.062178             0.094315
H            -9.650000            -2.684679             0.048908
C            -7.000000            -7.274613             0.046967
C            -5.600000            -7.274613             0.020217
C            -4.900000            -8.487049             0.047786
C            -3.500000            -8.487049             0.051143
C            -2.800000            -9.699485             0.057333
C            -1.400000            -9.699485             0.092334
C            -0.700000           -10.911920             0.091866
C             0.700000           -10.911920             0.069276
C             1.400000           -12.124356             0.089263
C             2.800000           -12.124356             0.028192
C             3.500000           -13.336791             0.037342
C             4.900000           -13.336791             0.042575
H             5.450000           -14.289419             0.043997
C           -11.200000            -4.849742             0.080133
C           -11.900000            -6.062178             0.072927
C           -11.200000            -7.274613             0.011722
C            -9.800000            -7.274613             0.076190
H           -11.750000            -3.897114             0.025692
H           -13.000000            -6.062178             0.049642
H           -11.750000            -8.227241             0.042437
C            -9.100000            -8.487049             0.073050
C            -7.700000            -8.487049             0.045078
H            -9.650000            -9.439677             0.065530
C            -7.000000            -9.699485             0.048551
C            -5.600000            -9.699485             0.012376
H            -7.550000           -10.652112             0.085971
C            -4.900000           -10.911920             0.012905
C            -3.500000           -10.911920             0.004104
H            -5.450000           -11.864548             0.025683
C            -2.800000           -12.124356             0.096640
C            -1.400000           -12.124356             0.027169
H            -3.350000           -13.076984             0.041417
C            -0.700000           -13.336791             0.059027
C             0.700000           -13.336791             0.067542
H            -1.250000           -14.289419             0.088625
C             1.400000           -14.549227             0.095918
C             2.800000           -14.549227             0.042768
H             0.850000           -15.501855             0.066318
H             3.350000           -15.501855             0.059345
