138
isomero_1_4
B             0.700000             1.212436             0.015847
C            -0.700000             1.212436             0.023093
C            -1.400000             0.000000             0.077482
C            -0.700000            -1.212436             0.079749
C             0.700000            -1.212436             0.041259
N             1.400000            -0.000000             0.075954
H             1.250000             2.165064             0.087033
H            -1.250000             2.165064             0.079494
C             2.800000             0.000000             0.046524
C             1.400000            -2.424871             0.004978
C             2.800000            -2.424871             0.053852
C             3.500000            -1.212436             0.087207
H             3.350000             0.952628             0.086017
C             4.900000            -1.212436             0.054295
C             3.500000            -3.637307             0.053531
C             4.900000            -3.637307             0.072810
C             5.600000            -2.424871             0.059046
H             5.450000            -0.259808             0.058896
C             7.000000            -2.424871             0.011746
C             5.600000            -4.849742             0.011532
C             7.000000            -4.849742             0.061493
C             7.700000            -3.637307             0.087096
H             7.550000            -1.472243             0.071551
C             9.100000            -3.637307             0.096502
C             7.700000            -6.062178             0.083911
C             9.100000            -6.062178             0.035088
C             9.800000            -4.849742             0.029838
H             9.650000            -2.684679             0.047353
C            11.200000            -4.849742             0.035490
C             9.800000            -7.274613             0.023477
C            11.200000            -7.274613             0.097766
C            11.900000            -6.062178             0.014357
H            11.750000            -3.897114             0.007508
C            13.300000            -6.062178             0.037218
C            11.900000            -8.487049             0.055139
C            13.300000            -8.487049             0.083929
C            14.000000            -7.274613             0.016153
H            13.850000            -5.109550             0.062466
H            13.850000            -9.439677             0.030715
H            15.100000            -7.274613             0.032044
C            -2.800000             0.000000             0.058604
C            -3.500000            -1.212436             0.066739
C            -2.800000            -2.424871             0.085969
C            -1.400000            -2.424871             0.062003
H            -3.350000             0.952628             0.023541
C            -0.700000            -3.637307             0.054679
C             0.700000            -3.637307             0.009805
C             1.400000            -4.849742             0.057645
C             2.800000            -4.849742             0.054256
C             3.500000            -6.062178             0.045084
C             4.900000            -6.062178             0.032466
C             5.600000            -7.274613             0.086072
C             7.000000            -7.274613             0.011485
C             7.700000            -8.487049             0.005212
C             9.100000            -8.487049             0.060784
C             9.800000            -9.699485             0.062604
C            11.200000            -9.699485             0.084297
H            11.750000           -10.652112             0.023577
C            -4.900000            -1.212436             0.021561
C            -5.600000            -2.424871             0.067345
C            -4.900000            -3.637307             0.055295
C            -3.500000            -3.637307             0.094094
H            -5.450000            -0.259808             0.099162
C            -2.800000            -4.849742             0.066327
C            -1.400000            -4.849742             0.078145
C            -0.700000            -6.062178             0.063102
C             0.700000            -6.062178             0.072656
C             1.400000            -7.274613             0.053105
C             2.800000            -7.274613             0.096618
C             3.500000            -8.487049             0.071502
C             4.900000            -8.487049             0.075966
C             5.600000            -9.699485             0.058391
C             7.000000            -9.699485             0.023143
C             7.700000           -10.911920             0.005425
C             9.100000           -10.911920             0.085889
H             9.650000           -11.864548             0.021127
C            -7.000000            -2.424871             0.087024
C            -7.700000            -3.637307             0.088240
C            -7.000000            -4.849742             0.088246
C            -5.600000            -4.849742             0.080482
H            -7.550000            -1.472243             0.025505
C            -4.900000            -6.062178             0.074825
C            -3.500000            -6.062178             0.096848
C            -2.800000            -7.274613             0.068014
C            -1.400000            -7.274613             0.091959
C            -0.700000            -8.487049             0.019644
C             0.700000            -8.487049             0.024338
C             1.400000            -9.699485             0.036787
C             2.800000            -9.699485             0.062026
C             3.500000           -10.911920             0.047504
C             4.900000           -10.911920             0.093657
C             5.600000           -12.124356             0.011647
C             7.000000           -12.124356             0.062826
H             7.550000           -13.076984             0.007688
C            -9.100000            -3.637307             0.057953
C            -9.800000            -4.849742             0.088229
C            -9.100000            -6.062178             0.040852
C            -7.700000            -6.062178             0.026741
H            -9.650000            -2.684679             0.000652
C            -7.000000            -7.274613             0.007629
C            -5.600000            -7.274613             0.098196
C            -4.900000            -8.487049             0.078593
C            -3.500000            -8.487049             0.042145
C            -2.800000            -9.699485             0.034979
C            -1.400000            -9.699485             0.032593
C            -0.700000           -10.911920             0.020066
C             0.700000           -10.911920             0.023365
C             1.400000           -12.124356             0.000149
C             2.800000           -12.124356             0.048471
C             3.500000           -13.336791             0.001477
C             4.900000           -13.336791             0.034433
H             5.450000           -14.289419             0.073449
C           -11.200000            -4.849742             0.011444
C           -11.900000            -6.062178             0.094386
C           -11.200000            -7.274613             0.056884
C            -9.800000            -7.274613             0.012698
H           -11.750000            -3.897114             0.071051
H           -13.000000            -6.062178             0.021477
H           -11.750000            -8.227241             0.022397
C            -9.100000            -8.487049             0.042535
C            -7.700000            -8.487049             0.041091
H            -9.650000            -9.439677             0.026708
C            -7.000000            -9.699485             0.040814
C            -5.600000            -9.699485             0.058363
H            -7.550000           -10.652112             0.024969
C            -4.900000           -10.911920             0.019772
C            -3.500000           -10.911920             0.052649
H            -5.450000           -11.864548             0.056775
C            -2.800000           -12.124356             0.060432
C            -1.400000           -12.124356             0.048411
H            -3.350000           -13.076984             0.001171
C            -0.700000           -13.336791             0.023268
C             0.700000           -13.336791             0.059494
H            -1.250000           -14.289419             0.016711
C             1.400000           -14.549227             0.060674
C             2.800000           -14.549227             0.080771
H             0.850000           -15.501855             0.012666
H             3.350000           -15.501855             0.085494
