138
isomero_42_41
C             0.700000             1.212436             0.089408
C            -0.700000             1.212436             0.010695
C            -1.400000             0.000000             0.035955
C            -0.700000            -1.212436             0.068627
C             0.700000            -1.212436             0.028632
C             1.400000            -0.000000             0.050824
H             1.250000             2.165064             0.092918
H            -1.250000             2.165064             0.053251
C             2.800000             0.000000             0.005085
C             1.400000            -2.424871             0.073114
C             2.800000            -2.424871             0.086528
C             3.500000            -1.212436             0.037348
H             3.350000             0.952628             0.006033
C             4.900000            -1.212436             0.088063
C             3.500000            -3.637307             0.012411
C             4.900000            -3.637307             0.052999
C             5.600000            -2.424871             0.098610
H             5.450000            -0.259808             0.056471
C             7.000000            -2.424871             0.040067
C             5.600000            -4.849742             0.050560
C             7.000000            -4.849742             0.013263
C             7.700000            -3.637307             0.015943
H             7.550000            -1.472243             0.006044
C             9.100000            -3.637307             0.032784
C             7.700000            -6.062178             0.032851
C             9.100000            -6.062178             0.085033
C             9.800000            -4.849742             0.085900
H             9.650000            -2.684679             0.097785
C            11.200000            -4.849742             0.065318
C             9.800000            -7.274613             0.073102
C            11.200000            -7.274613             0.059047
C            11.900000            -6.062178             0.064405
H            11.750000            -3.897114             0.091931
C            13.300000            -6.062178             0.064161
C            11.900000            -8.487049             0.070724
C            13.300000            -8.487049             0.050621
C            14.000000            -7.274613             0.084640
H            13.850000            -5.109550             0.005446
H            13.850000            -9.439677             0.019919
H            15.100000            -7.274613             0.020005
C            -2.800000             0.000000             0.023267
C            -3.500000            -1.212436             0.037601
C            -2.800000            -2.424871             0.024197
C            -1.400000            -2.424871             0.025448
H            -3.350000             0.952628             0.001862
C            -0.700000            -3.637307             0.040179
C             0.700000            -3.637307             0.083195
C             1.400000            -4.849742             0.095370
C             2.800000            -4.849742             0.054703
C             3.500000            -6.062178             0.038217
C             4.900000            -6.062178             0.002843
C             5.600000            -7.274613             0.029266
C             7.000000            -7.274613             0.087768
C             7.700000            -8.487049             0.035660
C             9.100000            -8.487049             0.014473
C             9.800000            -9.699485             0.068292
C            11.200000            -9.699485             0.027630
H            11.750000           -10.652112             0.025289
C            -4.900000            -1.212436             0.031687
C            -5.600000            -2.424871             0.068840
C            -4.900000            -3.637307             0.028801
C            -3.500000            -3.637307             0.018552
H            -5.450000            -0.259808             0.013431
C            -2.800000            -4.849742             0.058505
C            -1.400000            -4.849742             0.057844
C            -0.700000            -6.062178             0.027379
C             0.700000            -6.062178             0.022073
C             1.400000            -7.274613             0.042148
C             2.800000            -7.274613             0.085140
C             3.500000            -8.487049             0.063780
C             4.900000            -8.487049             0.036094
C             5.600000            -9.699485             0.004172
C             7.000000            -9.699485             0.004574
C             7.700000           -10.911920             0.034470
C             9.100000           -10.911920             0.083896
H             9.650000           -11.864548             0.013806
C            -7.000000            -2.424871             0.041715
C            -7.700000            -3.637307             0.015693
C            -7.000000            -4.849742             0.061970
C            -5.600000            -4.849742             0.012781
H            -7.550000            -1.472243             0.055556
C            -4.900000            -6.062178             0.017395
C            -3.500000            -6.062178             0.052796
C            -2.800000            -7.274613             0.002458
C            -1.400000            -7.274613             0.039499
C            -0.700000            -8.487049             0.065086
C             0.700000            -8.487049             0.082239
C             1.400000            -9.699485             0.030278
C             2.800000            -9.699485             0.058793
C             3.500000           -10.911920             0.037706
C             4.900000           -10.911920             0.021132
C             5.600000           -12.124356             0.068951
C             7.000000           -12.124356             0.074803
H             7.550000           -13.076984             0.058253
C            -9.100000            -3.637307             0.004195
N            -9.800000            -4.849742             0.090580
C            -9.100000            -6.062178             0.086863
C            -7.700000            -6.062178             0.021740
H            -9.650000            -2.684679             0.056934
C            -7.000000            -7.274613             0.080355
C            -5.600000            -7.274613             0.007094
C            -4.900000            -8.487049             0.022179
C            -3.500000            -8.487049             0.007805
C            -2.800000            -9.699485             0.048701
C            -1.400000            -9.699485             0.001073
C            -0.700000           -10.911920             0.095996
C             0.700000           -10.911920             0.076036
C             1.400000           -12.124356             0.024875
C             2.800000           -12.124356             0.019289
C             3.500000           -13.336791             0.037592
C             4.900000           -13.336791             0.030474
H             5.450000           -14.289419             0.088497
B           -11.200000            -4.849742             0.059192
C           -11.900000            -6.062178             0.008638
C           -11.200000            -7.274613             0.089974
C            -9.800000            -7.274613             0.008016
H           -11.750000            -3.897114             0.009719
H           -13.000000            -6.062178             0.042788
H           -11.750000            -8.227241             0.008982
C            -9.100000            -8.487049             0.078610
C            -7.700000            -8.487049             0.085188
H            -9.650000            -9.439677             0.059635
C            -7.000000            -9.699485             0.082673
C            -5.600000            -9.699485             0.085072
H            -7.550000           -10.652112             0.087760
C            -4.900000           -10.911920             0.092680
C            -3.500000           -10.911920             0.020550
H            -5.450000           -11.864548             0.089429
C            -2.800000           -12.124356             0.017758
C            -1.400000           -12.124356             0.013027
H            -3.350000           -13.076984             0.062742
C            -0.700000           -13.336791             0.044218
C             0.700000           -13.336791             0.064793
H            -1.250000           -14.289419             0.054354
C             1.400000           -14.549227             0.001127
C             2.800000           -14.549227             0.016262
H             0.850000           -15.501855             0.071818
H             3.350000           -15.501855             0.086445
