138
isomero_33_22
C             0.700000             1.212436             0.002337
C            -0.700000             1.212436             0.011064
C            -1.400000             0.000000             0.011453
C            -0.700000            -1.212436             0.052967
C             0.700000            -1.212436             0.037313
C             1.400000            -0.000000             0.061668
H             1.250000             2.165064             0.027385
H            -1.250000             2.165064             0.068228
C             2.800000             0.000000             0.092799
C             1.400000            -2.424871             0.020256
C             2.800000            -2.424871             0.045709
C             3.500000            -1.212436             0.087962
H             3.350000             0.952628             0.007509
C             4.900000            -1.212436             0.072417
C             3.500000            -3.637307             0.042268
C             4.900000            -3.637307             0.013521
C             5.600000            -2.424871             0.010917
H             5.450000            -0.259808             0.095822
C             7.000000            -2.424871             0.051497
C             5.600000            -4.849742             0.019956
B             7.000000            -4.849742             0.002623
N             7.700000            -3.637307             0.021952
H             7.550000            -1.472243             0.025676
C             9.100000            -3.637307             0.085853
C             7.700000            -6.062178             0.091429
C             9.100000            -6.062178             0.054671
C             9.800000            -4.849742             0.099577
H             9.650000            -2.684679             0.070801
C            11.200000            -4.849742             0.077775
C             9.800000            -7.274613             0.005731
C            11.200000            -7.274613             0.012135
C            11.900000            -6.062178             0.013971
H            11.750000            -3.897114             0.038621
C            13.300000            -6.062178             0.072195
C            11.900000            -8.487049             0.031089
C            13.300000            -8.487049             0.097479
C            14.000000            -7.274613             0.045891
H            13.850000            -5.109550             0.061698
H            13.850000            -9.439677             0.042221
H            15.100000            -7.274613             0.022850
C            -2.800000             0.000000             0.082825
C            -3.500000            -1.212436             0.080137
C            -2.800000            -2.424871             0.058088
C            -1.400000            -2.424871             0.036324
H            -3.350000             0.952628             0.052025
C            -0.700000            -3.637307             0.011696
C             0.700000            -3.637307             0.003640
C             1.400000            -4.849742             0.042999
C             2.800000            -4.849742             0.066420
C             3.500000            -6.062178             0.085917
C             4.900000            -6.062178             0.013723
C             5.600000            -7.274613             0.049539
C             7.000000            -7.274613             0.011618
C             7.700000            -8.487049             0.079365
C             9.100000            -8.487049             0.055385
C             9.800000            -9.699485             0.037832
C            11.200000            -9.699485             0.027277
H            11.750000           -10.652112             0.073930
C            -4.900000            -1.212436             0.006456
C            -5.600000            -2.424871             0.096992
C            -4.900000            -3.637307             0.031736
C            -3.500000            -3.637307             0.054190
H            -5.450000            -0.259808             0.089459
C            -2.800000            -4.849742             0.013136
C            -1.400000            -4.849742             0.043994
C            -0.700000            -6.062178             0.092789
C             0.700000            -6.062178             0.005700
C             1.400000            -7.274613             0.016761
C             2.800000            -7.274613             0.016174
C             3.500000            -8.487049             0.012752
C             4.900000            -8.487049             0.096620
C             5.600000            -9.699485             0.033865
C             7.000000            -9.699485             0.067616
C             7.700000           -10.911920             0.057454
C             9.100000           -10.911920             0.061278
H             9.650000           -11.864548             0.031765
C            -7.000000            -2.424871             0.035923
C            -7.700000            -3.637307             0.080167
C            -7.000000            -4.849742             0.051394
C            -5.600000            -4.849742             0.071590
H            -7.550000            -1.472243             0.059693
C            -4.900000            -6.062178             0.080976
C            -3.500000            -6.062178             0.070030
C            -2.800000            -7.274613             0.012586
C            -1.400000            -7.274613             0.045442
C            -0.700000            -8.487049             0.012347
C             0.700000            -8.487049             0.097010
C             1.400000            -9.699485             0.074989
C             2.800000            -9.699485             0.069119
C             3.500000           -10.911920             0.017830
C             4.900000           -10.911920             0.050558
C             5.600000           -12.124356             0.051522
C             7.000000           -12.124356             0.028482
H             7.550000           -13.076984             0.082432
C            -9.100000            -3.637307             0.010412
C            -9.800000            -4.849742             0.071151
C            -9.100000            -6.062178             0.037167
C            -7.700000            -6.062178             0.032262
H            -9.650000            -2.684679             0.091783
C            -7.000000            -7.274613             0.034834
C            -5.600000            -7.274613             0.053807
C            -4.900000            -8.487049             0.055132
C            -3.500000            -8.487049             0.089949
C            -2.800000            -9.699485             0.026373
C            -1.400000            -9.699485             0.011733
C            -0.700000           -10.911920             0.007919
C             0.700000           -10.911920             0.036890
C             1.400000           -12.124356             0.018919
C             2.800000           -12.124356             0.084712
C             3.500000           -13.336791             0.015831
C             4.900000           -13.336791             0.090004
H             5.450000           -14.289419             0.091216
C           -11.200000            -4.849742             0.082011
C           -11.900000            -6.062178             0.069850
C           -11.200000            -7.274613             0.057684
C            -9.800000            -7.274613             0.009555
H           -11.750000            -3.897114             0.097518
H           -13.000000            -6.062178             0.055645
H           -11.750000            -8.227241             0.070551
C            -9.100000            -8.487049             0.027786
C            -7.700000            -8.487049             0.013432
H            -9.650000            -9.439677             0.092387
C            -7.000000            -9.699485             0.042050
C            -5.600000            -9.699485             0.074043
H            -7.550000           -10.652112             0.016549
C            -4.900000           -10.911920             0.043939
C            -3.500000           -10.911920             0.035057
H            -5.450000           -11.864548             0.078757
C            -2.800000           -12.124356             0.093634
C            -1.400000           -12.124356             0.047318
H            -3.350000           -13.076984             0.021910
C            -0.700000           -13.336791             0.039960
C             0.700000           -13.336791             0.026865
H            -1.250000           -14.289419             0.025784
C             1.400000           -14.549227             0.004080
C             2.800000           -14.549227             0.007484
H             0.850000           -15.501855             0.090386
H             3.350000           -15.501855             0.062973
