138
isomero_35_36
C             0.700000             1.212436             0.067181
C            -0.700000             1.212436             0.043917
C            -1.400000             0.000000             0.023266
C            -0.700000            -1.212436             0.041945
C             0.700000            -1.212436             0.090898
C             1.400000            -0.000000             0.038625
H             1.250000             2.165064             0.078674
H            -1.250000             2.165064             0.050369
C             2.800000             0.000000             0.035912
C             1.400000            -2.424871             0.027593
C             2.800000            -2.424871             0.015989
C             3.500000            -1.212436             0.034124
H             3.350000             0.952628             0.013308
C             4.900000            -1.212436             0.032297
C             3.500000            -3.637307             0.086704
C             4.900000            -3.637307             0.054553
C             5.600000            -2.424871             0.005280
H             5.450000            -0.259808             0.091383
C             7.000000            -2.424871             0.084908
C             5.600000            -4.849742             0.075179
C             7.000000            -4.849742             0.075381
C             7.700000            -3.637307             0.030943
H             7.550000            -1.472243             0.056384
C             9.100000            -3.637307             0.059473
C             7.700000            -6.062178             0.060294
C             9.100000            -6.062178             0.087854
C             9.800000            -4.849742             0.042932
H             9.650000            -2.684679             0.097969
C            11.200000            -4.849742             0.047151
C             9.800000            -7.274613             0.062136
C            11.200000            -7.274613             0.083500
C            11.900000            -6.062178             0.021929
H            11.750000            -3.897114             0.007045
C            13.300000            -6.062178             0.004953
C            11.900000            -8.487049             0.090175
C            13.300000            -8.487049             0.059214
C            14.000000            -7.274613             0.047188
H            13.850000            -5.109550             0.037398
H            13.850000            -9.439677             0.074283
H            15.100000            -7.274613             0.047029
C            -2.800000             0.000000             0.038465
C            -3.500000            -1.212436             0.044849
C            -2.800000            -2.424871             0.016518
C            -1.400000            -2.424871             0.020931
H            -3.350000             0.952628             0.055867
C            -0.700000            -3.637307             0.043996
C             0.700000            -3.637307             0.035316
N             1.400000            -4.849742             0.005922
B             2.800000            -4.849742             0.002921
C             3.500000            -6.062178             0.053912
C             4.900000            -6.062178             0.072282
C             5.600000            -7.274613             0.077825
C             7.000000            -7.274613             0.035466
C             7.700000            -8.487049             0.006921
C             9.100000            -8.487049             0.001878
C             9.800000            -9.699485             0.036740
C            11.200000            -9.699485             0.003562
H            11.750000           -10.652112             0.012237
C            -4.900000            -1.212436             0.092303
C            -5.600000            -2.424871             0.041090
C            -4.900000            -3.637307             0.001982
C            -3.500000            -3.637307             0.015531
H            -5.450000            -0.259808             0.078043
C            -2.800000            -4.849742             0.087338
C            -1.400000            -4.849742             0.007411
C            -0.700000            -6.062178             0.004893
C             0.700000            -6.062178             0.024231
C             1.400000            -7.274613             0.050348
C             2.800000            -7.274613             0.033453
C             3.500000            -8.487049             0.021924
C             4.900000            -8.487049             0.031560
C             5.600000            -9.699485             0.050963
C             7.000000            -9.699485             0.007604
C             7.700000           -10.911920             0.044522
C             9.100000           -10.911920             0.034155
H             9.650000           -11.864548             0.022944
C            -7.000000            -2.424871             0.096387
C            -7.700000            -3.637307             0.060201
C            -7.000000            -4.849742             0.088685
C            -5.600000            -4.849742             0.046116
H            -7.550000            -1.472243             0.066946
C            -4.900000            -6.062178             0.023574
C            -3.500000            -6.062178             0.095348
C            -2.800000            -7.274613             0.004676
C            -1.400000            -7.274613             0.024975
C            -0.700000            -8.487049             0.012105
C             0.700000            -8.487049             0.069569
C             1.400000            -9.699485             0.060960
C             2.800000            -9.699485             0.049366
C             3.500000           -10.911920             0.030344
C             4.900000           -10.911920             0.012954
C             5.600000           -12.124356             0.038589
C             7.000000           -12.124356             0.048726
H             7.550000           -13.076984             0.092898
C            -9.100000            -3.637307             0.056102
C            -9.800000            -4.849742             0.003027
C            -9.100000            -6.062178             0.075186
C            -7.700000            -6.062178             0.062168
H            -9.650000            -2.684679             0.044276
C            -7.000000            -7.274613             0.088358
C            -5.600000            -7.274613             0.098211
C            -4.900000            -8.487049             0.005730
C            -3.500000            -8.487049             0.014568
C            -2.800000            -9.699485             0.074586
C            -1.400000            -9.699485             0.057167
C            -0.700000           -10.911920             0.057331
C             0.700000           -10.911920             0.072626
C             1.400000           -12.124356             0.094770
C             2.800000           -12.124356             0.031350
C             3.500000           -13.336791             0.056295
C             4.900000           -13.336791             0.081863
H             5.450000           -14.289419             0.093117
C           -11.200000            -4.849742             0.002395
C           -11.900000            -6.062178             0.066598
C           -11.200000            -7.274613             0.098280
C            -9.800000            -7.274613             0.075366
H           -11.750000            -3.897114             0.023541
H           -13.000000            -6.062178             0.091911
H           -11.750000            -8.227241             0.082427
C            -9.100000            -8.487049             0.002839
C            -7.700000            -8.487049             0.095343
H            -9.650000            -9.439677             0.022761
C            -7.000000            -9.699485             0.022474
C            -5.600000            -9.699485             0.022708
H            -7.550000           -10.652112             0.098062
C            -4.900000           -10.911920             0.076085
C            -3.500000           -10.911920             0.033991
H            -5.450000           -11.864548             0.052347
C            -2.800000           -12.124356             0.078114
C            -1.400000           -12.124356             0.098052
H            -3.350000           -13.076984             0.000565
C            -0.700000           -13.336791             0.063629
C             0.700000           -13.336791             0.012224
H            -1.250000           -14.289419             0.045496
C             1.400000           -14.549227             0.013785
C             2.800000           -14.549227             0.098808
H             0.850000           -15.501855             0.052741
H             3.350000           -15.501855             0.006644
