138
isomero_43_44
C             0.700000             1.212436             0.051810
C            -0.700000             1.212436             0.014910
C            -1.400000             0.000000             0.093444
C            -0.700000            -1.212436             0.058170
C             0.700000            -1.212436             0.057689
C             1.400000            -0.000000             0.061791
H             1.250000             2.165064             0.060997
H            -1.250000             2.165064             0.088962
C             2.800000             0.000000             0.012261
C             1.400000            -2.424871             0.062529
C             2.800000            -2.424871             0.085867
C             3.500000            -1.212436             0.055415
H             3.350000             0.952628             0.044373
C             4.900000            -1.212436             0.055499
C             3.500000            -3.637307             0.074479
C             4.900000            -3.637307             0.000098
C             5.600000            -2.424871             0.025382
H             5.450000            -0.259808             0.049358
C             7.000000            -2.424871             0.040669
C             5.600000            -4.849742             0.048152
C             7.000000            -4.849742             0.045955
C             7.700000            -3.637307             0.012255
H             7.550000            -1.472243             0.089573
C             9.100000            -3.637307             0.066418
C             7.700000            -6.062178             0.020258
C             9.100000            -6.062178             0.035826
C             9.800000            -4.849742             0.051224
H             9.650000            -2.684679             0.020022
C            11.200000            -4.849742             0.040782
C             9.800000            -7.274613             0.003962
C            11.200000            -7.274613             0.068650
N            11.900000            -6.062178             0.047684
H            11.750000            -3.897114             0.088254
B            13.300000            -6.062178             0.019093
C            11.900000            -8.487049             0.062567
C            13.300000            -8.487049             0.085931
C            14.000000            -7.274613             0.068238
H            13.850000            -5.109550             0.028248
H            13.850000            -9.439677             0.040609
H            15.100000            -7.274613             0.035190
C            -2.800000             0.000000             0.035896
C            -3.500000            -1.212436             0.062368
C            -2.800000            -2.424871             0.083742
C            -1.400000            -2.424871             0.045408
H            -3.350000             0.952628             0.041582
C            -0.700000            -3.637307             0.026751
C             0.700000            -3.637307             0.056511
C             1.400000            -4.849742             0.036638
C             2.800000            -4.849742             0.027165
C             3.500000            -6.062178             0.064916
C             4.900000            -6.062178             0.091281
C             5.600000            -7.274613             0.036616
C             7.000000            -7.274613             0.000563
C             7.700000            -8.487049             0.044125
C             9.100000            -8.487049             0.023043
C             9.800000            -9.699485             0.008759
C            11.200000            -9.699485             0.006865
H            11.750000           -10.652112             0.028428
C            -4.900000            -1.212436             0.079799
C            -5.600000            -2.424871             0.034181
C            -4.900000            -3.637307             0.045394
C            -3.500000            -3.637307             0.069120
H            -5.450000            -0.259808             0.081561
C            -2.800000            -4.849742             0.015511
C            -1.400000            -4.849742             0.061895
C            -0.700000            -6.062178             0.021010
C             0.700000            -6.062178             0.037191
C             1.400000            -7.274613             0.070448
C             2.800000            -7.274613             0.062959
C             3.500000            -8.487049             0.055528
C             4.900000            -8.487049             0.002847
C             5.600000            -9.699485             0.092908
C             7.000000            -9.699485             0.088676
C             7.700000           -10.911920             0.003074
C             9.100000           -10.911920             0.033962
H             9.650000           -11.864548             0.096523
C            -7.000000            -2.424871             0.095556
C            -7.700000            -3.637307             0.072540
C            -7.000000            -4.849742             0.032086
C            -5.600000            -4.849742             0.092728
H            -7.550000            -1.472243             0.046324
C            -4.900000            -6.062178             0.020698
C            -3.500000            -6.062178             0.004348
C            -2.800000            -7.274613             0.033526
C            -1.400000            -7.274613             0.046305
C            -0.700000            -8.487049             0.077557
C             0.700000            -8.487049             0.075440
C             1.400000            -9.699485             0.051069
C             2.800000            -9.699485             0.007731
C             3.500000           -10.911920             0.038276
C             4.900000           -10.911920             0.074492
C             5.600000           -12.124356             0.023520
C             7.000000           -12.124356             0.010267
H             7.550000           -13.076984             0.055477
C            -9.100000            -3.637307             0.089251
C            -9.800000            -4.849742             0.032735
C            -9.100000            -6.062178             0.065513
C            -7.700000            -6.062178             0.043872
H            -9.650000            -2.684679             0.081537
C            -7.000000            -7.274613             0.087990
C            -5.600000            -7.274613             0.090294
C            -4.900000            -8.487049             0.099217
C            -3.500000            -8.487049             0.023653
C            -2.800000            -9.699485             0.073322
C            -1.400000            -9.699485             0.024590
C            -0.700000           -10.911920             0.083332
C             0.700000           -10.911920             0.050661
C             1.400000           -12.124356             0.015878
C             2.800000           -12.124356             0.088021
C             3.500000           -13.336791             0.096973
C             4.900000           -13.336791             0.052732
H             5.450000           -14.289419             0.016231
C           -11.200000            -4.849742             0.052137
C           -11.900000            -6.062178             0.060096
C           -11.200000            -7.274613             0.008439
C            -9.800000            -7.274613             0.099751
H           -11.750000            -3.897114             0.014396
H           -13.000000            -6.062178             0.075893
H           -11.750000            -8.227241             0.095665
C            -9.100000            -8.487049             0.007337
C            -7.700000            -8.487049             0.004031
H            -9.650000            -9.439677             0.023920
C            -7.000000            -9.699485             0.062070
C            -5.600000            -9.699485             0.038052
H            -7.550000           -10.652112             0.078086
C            -4.900000           -10.911920             0.063510
C            -3.500000           -10.911920             0.046054
H            -5.450000           -11.864548             0.099835
C            -2.800000           -12.124356             0.084126
C            -1.400000           -12.124356             0.064039
H            -3.350000           -13.076984             0.044067
C            -0.700000           -13.336791             0.009908
C             0.700000           -13.336791             0.021731
H            -1.250000           -14.289419             0.000334
C             1.400000           -14.549227             0.084375
C             2.800000           -14.549227             0.076705
H             0.850000           -15.501855             0.080830
H             3.350000           -15.501855             0.019243
