138
isomero_23_34
C             0.700000             1.212436             0.009238
C            -0.700000             1.212436             0.052346
C            -1.400000             0.000000             0.090919
C            -0.700000            -1.212436             0.086808
C             0.700000            -1.212436             0.051440
C             1.400000            -0.000000             0.023990
H             1.250000             2.165064             0.030795
H            -1.250000             2.165064             0.039674
C             2.800000             0.000000             0.011668
C             1.400000            -2.424871             0.022236
C             2.800000            -2.424871             0.008472
C             3.500000            -1.212436             0.099058
H             3.350000             0.952628             0.058606
C             4.900000            -1.212436             0.063250
C             3.500000            -3.637307             0.019913
B             4.900000            -3.637307             0.017087
C             5.600000            -2.424871             0.044927
H             5.450000            -0.259808             0.040282
C             7.000000            -2.424871             0.010827
N             5.600000            -4.849742             0.017103
C             7.000000            -4.849742             0.061112
C             7.700000            -3.637307             0.049517
H             7.550000            -1.472243             0.027032
C             9.100000            -3.637307             0.030202
C             7.700000            -6.062178             0.000541
C             9.100000            -6.062178             0.000102
C             9.800000            -4.849742             0.051897
H             9.650000            -2.684679             0.024217
C            11.200000            -4.849742             0.008910
C             9.800000            -7.274613             0.063243
C            11.200000            -7.274613             0.081332
C            11.900000            -6.062178             0.000179
H            11.750000            -3.897114             0.078788
C            13.300000            -6.062178             0.039518
C            11.900000            -8.487049             0.069733
C            13.300000            -8.487049             0.008253
C            14.000000            -7.274613             0.030853
H            13.850000            -5.109550             0.025807
H            13.850000            -9.439677             0.019362
H            15.100000            -7.274613             0.082785
C            -2.800000             0.000000             0.032610
C            -3.500000            -1.212436             0.002890
C            -2.800000            -2.424871             0.022223
C            -1.400000            -2.424871             0.084042
H            -3.350000             0.952628             0.083629
C            -0.700000            -3.637307             0.067718
C             0.700000            -3.637307             0.033807
C             1.400000            -4.849742             0.001243
C             2.800000            -4.849742             0.068921
C             3.500000            -6.062178             0.028670
C             4.900000            -6.062178             0.061628
C             5.600000            -7.274613             0.063831
C             7.000000            -7.274613             0.096033
C             7.700000            -8.487049             0.092790
C             9.100000            -8.487049             0.025950
C             9.800000            -9.699485             0.042445
C            11.200000            -9.699485             0.098293
H            11.750000           -10.652112             0.019193
C            -4.900000            -1.212436             0.073397
C            -5.600000            -2.424871             0.001859
C            -4.900000            -3.637307             0.003832
C            -3.500000            -3.637307             0.059280
H            -5.450000            -0.259808             0.011769
C            -2.800000            -4.849742             0.016774
C            -1.400000            -4.849742             0.076270
C            -0.700000            -6.062178             0.081009
C             0.700000            -6.062178             0.030128
C             1.400000            -7.274613             0.038166
C             2.800000            -7.274613             0.060954
C             3.500000            -8.487049             0.070949
C             4.900000            -8.487049             0.046442
C             5.600000            -9.699485             0.036391
C             7.000000            -9.699485             0.099555
C             7.700000           -10.911920             0.033361
C             9.100000           -10.911920             0.041277
H             9.650000           -11.864548             0.051619
C            -7.000000            -2.424871             0.030660
C            -7.700000            -3.637307             0.063721
C            -7.000000            -4.849742             0.070576
C            -5.600000            -4.849742             0.084361
H            -7.550000            -1.472243             0.094915
C            -4.900000            -6.062178             0.034517
C            -3.500000            -6.062178             0.043442
C            -2.800000            -7.274613             0.075812
C            -1.400000            -7.274613             0.087752
C            -0.700000            -8.487049             0.079300
C             0.700000            -8.487049             0.094022
C             1.400000            -9.699485             0.034995
C             2.800000            -9.699485             0.036533
C             3.500000           -10.911920             0.061478
C             4.900000           -10.911920             0.097148
C             5.600000           -12.124356             0.069929
C             7.000000           -12.124356             0.009959
H             7.550000           -13.076984             0.074619
C            -9.100000            -3.637307             0.027248
C            -9.800000            -4.849742             0.040589
C            -9.100000            -6.062178             0.032070
C            -7.700000            -6.062178             0.030510
H            -9.650000            -2.684679             0.035517
C            -7.000000            -7.274613             0.036155
C            -5.600000            -7.274613             0.088654
C            -4.900000            -8.487049             0.062255
C            -3.500000            -8.487049             0.020046
C            -2.800000            -9.699485             0.067072
C            -1.400000            -9.699485             0.005675
C            -0.700000           -10.911920             0.082888
C             0.700000           -10.911920             0.092545
C             1.400000           -12.124356             0.090860
C             2.800000           -12.124356             0.065593
C             3.500000           -13.336791             0.027749
C             4.900000           -13.336791             0.084994
H             5.450000           -14.289419             0.023448
C           -11.200000            -4.849742             0.091246
C           -11.900000            -6.062178             0.039992
C           -11.200000            -7.274613             0.023711
C            -9.800000            -7.274613             0.019239
H           -11.750000            -3.897114             0.027022
H           -13.000000            -6.062178             0.091334
H           -11.750000            -8.227241             0.069937
C            -9.100000            -8.487049             0.089844
C            -7.700000            -8.487049             0.038017
H            -9.650000            -9.439677             0.012108
C            -7.000000            -9.699485             0.048065
C            -5.600000            -9.699485             0.013425
H            -7.550000           -10.652112             0.038740
C            -4.900000           -10.911920             0.042611
C            -3.500000           -10.911920             0.099777
H            -5.450000           -11.864548             0.010202
C            -2.800000           -12.124356             0.004720
C            -1.400000           -12.124356             0.096540
H            -3.350000           -13.076984             0.021085
C            -0.700000           -13.336791             0.003678
C             0.700000           -13.336791             0.047313
H            -1.250000           -14.289419             0.025101
C             1.400000           -14.549227             0.018432
C             2.800000           -14.549227             0.004628
H             0.850000           -15.501855             0.061153
H             3.350000           -15.501855             0.028762
