138
isomero_10_9
C             0.700000             1.212436             0.047534
C            -0.700000             1.212436             0.041580
C            -1.400000             0.000000             0.049574
B            -0.700000            -1.212436             0.028889
N             0.700000            -1.212436             0.087973
C             1.400000            -0.000000             0.003821
H             1.250000             2.165064             0.094847
H            -1.250000             2.165064             0.026288
C             2.800000             0.000000             0.001947
C             1.400000            -2.424871             0.063357
C             2.800000            -2.424871             0.045758
C             3.500000            -1.212436             0.071026
H             3.350000             0.952628             0.002894
C             4.900000            -1.212436             0.098950
C             3.500000            -3.637307             0.060110
C             4.900000            -3.637307             0.087571
C             5.600000            -2.424871             0.007710
H             5.450000            -0.259808             0.049437
C             7.000000            -2.424871             0.011128
C             5.600000            -4.849742             0.028766
C             7.000000            -4.849742             0.007418
C             7.700000            -3.637307             0.000632
H             7.550000            -1.472243             0.030126
C             9.100000            -3.637307             0.034330
C             7.700000            -6.062178             0.071658
C             9.100000            -6.062178             0.067096
C             9.800000            -4.849742             0.094019
H             9.650000            -2.684679             0.022786
C            11.200000            -4.849742             0.028321
C             9.800000            -7.274613             0.038788
C            11.200000            -7.274613             0.061875
C            11.900000            -6.062178             0.041994
H            11.750000            -3.897114             0.018304
C            13.300000            -6.062178             0.044352
C            11.900000            -8.487049             0.097388
C            13.300000            -8.487049             0.020849
C            14.000000            -7.274613             0.065474
H            13.850000            -5.109550             0.045489
H            13.850000            -9.439677             0.058970
H            15.100000            -7.274613             0.094477
C            -2.800000             0.000000             0.077264
C            -3.500000            -1.212436             0.051092
C            -2.800000            -2.424871             0.012893
C            -1.400000            -2.424871             0.083800
H            -3.350000             0.952628             0.080151
C            -0.700000            -3.637307             0.015370
C             0.700000            -3.637307             0.004448
C             1.400000            -4.849742             0.091701
C             2.800000            -4.849742             0.061931
C             3.500000            -6.062178             0.016848
C             4.900000            -6.062178             0.047341
C             5.600000            -7.274613             0.064658
C             7.000000            -7.274613             0.002818
C             7.700000            -8.487049             0.089387
C             9.100000            -8.487049             0.097469
C             9.800000            -9.699485             0.007125
C            11.200000            -9.699485             0.094031
H            11.750000           -10.652112             0.071472
C            -4.900000            -1.212436             0.019480
C            -5.600000            -2.424871             0.089665
C            -4.900000            -3.637307             0.033910
C            -3.500000            -3.637307             0.079578
H            -5.450000            -0.259808             0.043997
C            -2.800000            -4.849742             0.030062
C            -1.400000            -4.849742             0.036167
C            -0.700000            -6.062178             0.005420
C             0.700000            -6.062178             0.029261
C             1.400000            -7.274613             0.043219
C             2.800000            -7.274613             0.094573
C             3.500000            -8.487049             0.033743
C             4.900000            -8.487049             0.093522
C             5.600000            -9.699485             0.073408
C             7.000000            -9.699485             0.061222
C             7.700000           -10.911920             0.073055
C             9.100000           -10.911920             0.046210
H             9.650000           -11.864548             0.043437
C            -7.000000            -2.424871             0.098143
C            -7.700000            -3.637307             0.019628
C            -7.000000            -4.849742             0.057551
C            -5.600000            -4.849742             0.057851
H            -7.550000            -1.472243             0.002152
C            -4.900000            -6.062178             0.003046
C            -3.500000            -6.062178             0.050323
C            -2.800000            -7.274613             0.000824
C            -1.400000            -7.274613             0.055907
C            -0.700000            -8.487049             0.030018
C             0.700000            -8.487049             0.068877
C             1.400000            -9.699485             0.077258
C             2.800000            -9.699485             0.085411
C             3.500000           -10.911920             0.080288
C             4.900000           -10.911920             0.055911
C             5.600000           -12.124356             0.018726
C             7.000000           -12.124356             0.004690
H             7.550000           -13.076984             0.005464
C            -9.100000            -3.637307             0.021132
C            -9.800000            -4.849742             0.017836
C            -9.100000            -6.062178             0.055930
C            -7.700000            -6.062178             0.088618
H            -9.650000            -2.684679             0.095627
C            -7.000000            -7.274613             0.074413
C            -5.600000            -7.274613             0.032138
C            -4.900000            -8.487049             0.073207
C            -3.500000            -8.487049             0.085480
C            -2.800000            -9.699485             0.003062
C            -1.400000            -9.699485             0.022526
C            -0.700000           -10.911920             0.068116
C             0.700000           -10.911920             0.024043
C             1.400000           -12.124356             0.046581
C             2.800000           -12.124356             0.066285
C             3.500000           -13.336791             0.063511
C             4.900000           -13.336791             0.081166
H             5.450000           -14.289419             0.038159
C           -11.200000            -4.849742             0.081193
C           -11.900000            -6.062178             0.079632
C           -11.200000            -7.274613             0.014796
C            -9.800000            -7.274613             0.091656
H           -11.750000            -3.897114             0.054371
H           -13.000000            -6.062178             0.033318
H           -11.750000            -8.227241             0.036681
C            -9.100000            -8.487049             0.047959
C            -7.700000            -8.487049             0.000513
H            -9.650000            -9.439677             0.035942
C            -7.000000            -9.699485             0.075294
C            -5.600000            -9.699485             0.086877
H            -7.550000           -10.652112             0.025246
C            -4.900000           -10.911920             0.035100
C            -3.500000           -10.911920             0.032173
H            -5.450000           -11.864548             0.005601
C            -2.800000           -12.124356             0.058883
C            -1.400000           -12.124356             0.083766
H            -3.350000           -13.076984             0.088248
C            -0.700000           -13.336791             0.000648
C             0.700000           -13.336791             0.075890
H            -1.250000           -14.289419             0.006391
C             1.400000           -14.549227             0.014378
C             2.800000           -14.549227             0.038928
H             0.850000           -15.501855             0.095980
H             3.350000           -15.501855             0.062639
