138
isomero_18_27
C             0.700000             1.212436             0.001829
C            -0.700000             1.212436             0.084547
C            -1.400000             0.000000             0.063572
C            -0.700000            -1.212436             0.043420
C             0.700000            -1.212436             0.004607
C             1.400000            -0.000000             0.030979
H             1.250000             2.165064             0.091097
H            -1.250000             2.165064             0.067172
C             2.800000             0.000000             0.063199
C             1.400000            -2.424871             0.066511
C             2.800000            -2.424871             0.009617
C             3.500000            -1.212436             0.062495
H             3.350000             0.952628             0.000852
C             4.900000            -1.212436             0.027801
C             3.500000            -3.637307             0.009438
C             4.900000            -3.637307             0.064528
C             5.600000            -2.424871             0.032072
H             5.450000            -0.259808             0.070922
C             7.000000            -2.424871             0.027145
C             5.600000            -4.849742             0.028307
C             7.000000            -4.849742             0.056585
C             7.700000            -3.637307             0.012475
H             7.550000            -1.472243             0.086481
C             9.100000            -3.637307             0.081672
C             7.700000            -6.062178             0.067914
C             9.100000            -6.062178             0.097660
C             9.800000            -4.849742             0.098282
H             9.650000            -2.684679             0.055696
C            11.200000            -4.849742             0.043882
C             9.800000            -7.274613             0.065605
C            11.200000            -7.274613             0.016889
C            11.900000            -6.062178             0.070682
H            11.750000            -3.897114             0.055437
C            13.300000            -6.062178             0.038532
C            11.900000            -8.487049             0.032824
C            13.300000            -8.487049             0.026920
C            14.000000            -7.274613             0.043352
H            13.850000            -5.109550             0.010965
H            13.850000            -9.439677             0.075148
H            15.100000            -7.274613             0.036967
C            -2.800000             0.000000             0.060076
C            -3.500000            -1.212436             0.051465
B            -2.800000            -2.424871             0.094874
C            -1.400000            -2.424871             0.047782
H            -3.350000             0.952628             0.066205
C            -0.700000            -3.637307             0.053740
C             0.700000            -3.637307             0.094520
C             1.400000            -4.849742             0.061298
C             2.800000            -4.849742             0.014202
C             3.500000            -6.062178             0.080306
C             4.900000            -6.062178             0.003752
C             5.600000            -7.274613             0.033173
C             7.000000            -7.274613             0.089117
C             7.700000            -8.487049             0.024146
C             9.100000            -8.487049             0.068376
C             9.800000            -9.699485             0.058076
C            11.200000            -9.699485             0.024475
H            11.750000           -10.652112             0.005118
C            -4.900000            -1.212436             0.025026
C            -5.600000            -2.424871             0.028597
C            -4.900000            -3.637307             0.063113
N            -3.500000            -3.637307             0.010069
H            -5.450000            -0.259808             0.048636
C            -2.800000            -4.849742             0.069960
C            -1.400000            -4.849742             0.064500
C            -0.700000            -6.062178             0.018837
C             0.700000            -6.062178             0.062771
C             1.400000            -7.274613             0.032115
C             2.800000            -7.274613             0.013997
C             3.500000            -8.487049             0.036121
C             4.900000            -8.487049             0.083814
C             5.600000            -9.699485             0.098622
C             7.000000            -9.699485             0.047742
C             7.700000           -10.911920             0.005920
C             9.100000           -10.911920             0.042913
H             9.650000           -11.864548             0.013094
C            -7.000000            -2.424871             0.034535
C            -7.700000            -3.637307             0.092870
C            -7.000000            -4.849742             0.000036
C            -5.600000            -4.849742             0.050240
H            -7.550000            -1.472243             0.071444
C            -4.900000            -6.062178             0.098132
C            -3.500000            -6.062178             0.085260
C            -2.800000            -7.274613             0.077364
C            -1.400000            -7.274613             0.033680
C            -0.700000            -8.487049             0.012405
C             0.700000            -8.487049             0.095587
C             1.400000            -9.699485             0.054089
C             2.800000            -9.699485             0.050262
C             3.500000           -10.911920             0.065941
C             4.900000           -10.911920             0.060128
C             5.600000           -12.124356             0.022934
C             7.000000           -12.124356             0.016213
H             7.550000           -13.076984             0.045758
C            -9.100000            -3.637307             0.069440
C            -9.800000            -4.849742             0.009742
C            -9.100000            -6.062178             0.028279
C            -7.700000            -6.062178             0.016389
H            -9.650000            -2.684679             0.039140
C            -7.000000            -7.274613             0.074044
C            -5.600000            -7.274613             0.062994
C            -4.900000            -8.487049             0.067953
C            -3.500000            -8.487049             0.018434
C            -2.800000            -9.699485             0.001865
C            -1.400000            -9.699485             0.061737
C            -0.700000           -10.911920             0.002294
C             0.700000           -10.911920             0.096188
C             1.400000           -12.124356             0.051081
C             2.800000           -12.124356             0.031871
C             3.500000           -13.336791             0.071996
C             4.900000           -13.336791             0.046269
H             5.450000           -14.289419             0.034587
C           -11.200000            -4.849742             0.057230
C           -11.900000            -6.062178             0.094134
C           -11.200000            -7.274613             0.060841
C            -9.800000            -7.274613             0.074771
H           -11.750000            -3.897114             0.000538
H           -13.000000            -6.062178             0.016450
H           -11.750000            -8.227241             0.021169
C            -9.100000            -8.487049             0.011739
C            -7.700000            -8.487049             0.042539
H            -9.650000            -9.439677             0.020720
C            -7.000000            -9.699485             0.084595
C            -5.600000            -9.699485             0.092484
H            -7.550000           -10.652112             0.026027
C            -4.900000           -10.911920             0.052051
C            -3.500000           -10.911920             0.002305
H            -5.450000           -11.864548             0.056721
C            -2.800000           -12.124356             0.095931
C            -1.400000           -12.124356             0.059529
H            -3.350000           -13.076984             0.084454
C            -0.700000           -13.336791             0.088431
C             0.700000           -13.336791             0.087804
H            -1.250000           -14.289419             0.019505
C             1.400000           -14.549227             0.073415
C             2.800000           -14.549227             0.080583
H             0.850000           -15.501855             0.003146
H             3.350000           -15.501855             0.045402
