138
isomero_39_40
C             0.700000             1.212436             0.041469
C            -0.700000             1.212436             0.006689
C            -1.400000             0.000000             0.051054
C            -0.700000            -1.212436             0.041205
C             0.700000            -1.212436             0.027445
C             1.400000            -0.000000             0.051267
H             1.250000             2.165064             0.099240
H            -1.250000             2.165064             0.027197
C             2.800000             0.000000             0.090703
C             1.400000            -2.424871             0.042058
C             2.800000            -2.424871             0.017584
C             3.500000            -1.212436             0.025365
H             3.350000             0.952628             0.006612
C             4.900000            -1.212436             0.009237
C             3.500000            -3.637307             0.085476
C             4.900000            -3.637307             0.000525
C             5.600000            -2.424871             0.096980
H             5.450000            -0.259808             0.004914
C             7.000000            -2.424871             0.076753
C             5.600000            -4.849742             0.022701
C             7.000000            -4.849742             0.042455
C             7.700000            -3.637307             0.027690
H             7.550000            -1.472243             0.099047
C             9.100000            -3.637307             0.039013
C             7.700000            -6.062178             0.077586
C             9.100000            -6.062178             0.085871
C             9.800000            -4.849742             0.009323
H             9.650000            -2.684679             0.020160
C            11.200000            -4.849742             0.061696
C             9.800000            -7.274613             0.061515
C            11.200000            -7.274613             0.025032
C            11.900000            -6.062178             0.027332
H            11.750000            -3.897114             0.004227
C            13.300000            -6.062178             0.075201
C            11.900000            -8.487049             0.049342
C            13.300000            -8.487049             0.084544
C            14.000000            -7.274613             0.035906
H            13.850000            -5.109550             0.062184
H            13.850000            -9.439677             0.036796
H            15.100000            -7.274613             0.058583
C            -2.800000             0.000000             0.025560
C            -3.500000            -1.212436             0.073038
C            -2.800000            -2.424871             0.007071
C            -1.400000            -2.424871             0.077515
H            -3.350000             0.952628             0.055860
C            -0.700000            -3.637307             0.087490
C             0.700000            -3.637307             0.068754
C             1.400000            -4.849742             0.087877
C             2.800000            -4.849742             0.098064
C             3.500000            -6.062178             0.047104
C             4.900000            -6.062178             0.095323
C             5.600000            -7.274613             0.069547
C             7.000000            -7.274613             0.050637
C             7.700000            -8.487049             0.006401
C             9.100000            -8.487049             0.090783
C             9.800000            -9.699485             0.099649
C            11.200000            -9.699485             0.015762
H            11.750000           -10.652112             0.001048
C            -4.900000            -1.212436             0.095380
C            -5.600000            -2.424871             0.076585
C            -4.900000            -3.637307             0.050904
C            -3.500000            -3.637307             0.052573
H            -5.450000            -0.259808             0.062474
C            -2.800000            -4.849742             0.074174
C            -1.400000            -4.849742             0.088725
C            -0.700000            -6.062178             0.079264
C             0.700000            -6.062178             0.064796
C             1.400000            -7.274613             0.062597
C             2.800000            -7.274613             0.095374
C             3.500000            -8.487049             0.001944
C             4.900000            -8.487049             0.023273
C             5.600000            -9.699485             0.070737
C             7.000000            -9.699485             0.021176
C             7.700000           -10.911920             0.052498
C             9.100000           -10.911920             0.012311
H             9.650000           -11.864548             0.024450
C            -7.000000            -2.424871             0.061100
C            -7.700000            -3.637307             0.003973
N            -7.000000            -4.849742             0.026984
B            -5.600000            -4.849742             0.052342
H            -7.550000            -1.472243             0.028720
C            -4.900000            -6.062178             0.021578
C            -3.500000            -6.062178             0.058830
C            -2.800000            -7.274613             0.057825
C            -1.400000            -7.274613             0.099322
C            -0.700000            -8.487049             0.049418
C             0.700000            -8.487049             0.076529
C             1.400000            -9.699485             0.077295
C             2.800000            -9.699485             0.004199
C             3.500000           -10.911920             0.083403
C             4.900000           -10.911920             0.077098
C             5.600000           -12.124356             0.053522
C             7.000000           -12.124356             0.073959
H             7.550000           -13.076984             0.070218
C            -9.100000            -3.637307             0.062016
C            -9.800000            -4.849742             0.020134
C            -9.100000            -6.062178             0.079696
C            -7.700000            -6.062178             0.012508
H            -9.650000            -2.684679             0.022047
C            -7.000000            -7.274613             0.043062
C            -5.600000            -7.274613             0.071922
C            -4.900000            -8.487049             0.012102
C            -3.500000            -8.487049             0.053042
C            -2.800000            -9.699485             0.013927
C            -1.400000            -9.699485             0.081871
C            -0.700000           -10.911920             0.008022
C             0.700000           -10.911920             0.088949
C             1.400000           -12.124356             0.029998
C             2.800000           -12.124356             0.018191
C             3.500000           -13.336791             0.043774
C             4.900000           -13.336791             0.053295
H             5.450000           -14.289419             0.082552
C           -11.200000            -4.849742             0.014068
C           -11.900000            -6.062178             0.099346
C           -11.200000            -7.274613             0.078707
C            -9.800000            -7.274613             0.019141
H           -11.750000            -3.897114             0.001206
H           -13.000000            -6.062178             0.057194
H           -11.750000            -8.227241             0.029328
C            -9.100000            -8.487049             0.069564
C            -7.700000            -8.487049             0.095615
H            -9.650000            -9.439677             0.069708
C            -7.000000            -9.699485             0.074184
C            -5.600000            -9.699485             0.024813
H            -7.550000           -10.652112             0.074786
C            -4.900000           -10.911920             0.092612
C            -3.500000           -10.911920             0.093058
H            -5.450000           -11.864548             0.093462
C            -2.800000           -12.124356             0.094312
C            -1.400000           -12.124356             0.020514
H            -3.350000           -13.076984             0.020778
C            -0.700000           -13.336791             0.030835
C             0.700000           -13.336791             0.051886
H            -1.250000           -14.289419             0.029388
C             1.400000           -14.549227             0.052259
C             2.800000           -14.549227             0.014268
H             0.850000           -15.501855             0.059508
H             3.350000           -15.501855             0.037444
