138
isomero_28_27
C             0.700000             1.212436             0.086499
C            -0.700000             1.212436             0.031727
C            -1.400000             0.000000             0.082948
C            -0.700000            -1.212436             0.035897
C             0.700000            -1.212436             0.009668
C             1.400000            -0.000000             0.073482
H             1.250000             2.165064             0.021709
H            -1.250000             2.165064             0.054746
C             2.800000             0.000000             0.022303
C             1.400000            -2.424871             0.081766
C             2.800000            -2.424871             0.061605
C             3.500000            -1.212436             0.054419
H             3.350000             0.952628             0.046424
C             4.900000            -1.212436             0.030762
C             3.500000            -3.637307             0.094512
C             4.900000            -3.637307             0.045909
C             5.600000            -2.424871             0.015251
H             5.450000            -0.259808             0.060812
C             7.000000            -2.424871             0.046032
C             5.600000            -4.849742             0.049865
C             7.000000            -4.849742             0.043556
C             7.700000            -3.637307             0.026903
H             7.550000            -1.472243             0.062937
C             9.100000            -3.637307             0.085344
C             7.700000            -6.062178             0.008491
C             9.100000            -6.062178             0.074988
C             9.800000            -4.849742             0.076302
H             9.650000            -2.684679             0.085425
C            11.200000            -4.849742             0.074781
C             9.800000            -7.274613             0.080001
C            11.200000            -7.274613             0.075656
C            11.900000            -6.062178             0.012153
H            11.750000            -3.897114             0.052768
C            13.300000            -6.062178             0.067224
C            11.900000            -8.487049             0.099648
C            13.300000            -8.487049             0.082786
C            14.000000            -7.274613             0.072289
H            13.850000            -5.109550             0.017716
H            13.850000            -9.439677             0.099942
H            15.100000            -7.274613             0.070860
C            -2.800000             0.000000             0.020484
C            -3.500000            -1.212436             0.002572
C            -2.800000            -2.424871             0.012039
C            -1.400000            -2.424871             0.096708
H            -3.350000             0.952628             0.000263
C            -0.700000            -3.637307             0.078936
C             0.700000            -3.637307             0.042825
C             1.400000            -4.849742             0.068375
C             2.800000            -4.849742             0.052667
C             3.500000            -6.062178             0.017403
C             4.900000            -6.062178             0.006841
C             5.600000            -7.274613             0.091781
C             7.000000            -7.274613             0.087238
C             7.700000            -8.487049             0.050199
C             9.100000            -8.487049             0.004931
C             9.800000            -9.699485             0.070447
C            11.200000            -9.699485             0.005023
H            11.750000           -10.652112             0.012283
C            -4.900000            -1.212436             0.083245
C            -5.600000            -2.424871             0.039234
B            -4.900000            -3.637307             0.047267
N            -3.500000            -3.637307             0.083976
H            -5.450000            -0.259808             0.013401
C            -2.800000            -4.849742             0.036089
C            -1.400000            -4.849742             0.045723
C            -0.700000            -6.062178             0.016986
C             0.700000            -6.062178             0.037307
C             1.400000            -7.274613             0.079998
C             2.800000            -7.274613             0.017487
C             3.500000            -8.487049             0.060635
C             4.900000            -8.487049             0.045080
C             5.600000            -9.699485             0.099405
C             7.000000            -9.699485             0.009129
C             7.700000           -10.911920             0.097098
C             9.100000           -10.911920             0.008032
H             9.650000           -11.864548             0.085279
C            -7.000000            -2.424871             0.043852
C            -7.700000            -3.637307             0.082427
C            -7.000000            -4.849742             0.027534
C            -5.600000            -4.849742             0.029111
H            -7.550000            -1.472243             0.035696
C            -4.900000            -6.062178             0.024661
C            -3.500000            -6.062178             0.018796
C            -2.800000            -7.274613             0.027702
C            -1.400000            -7.274613             0.004751
C            -0.700000            -8.487049             0.075697
C             0.700000            -8.487049             0.058864
C             1.400000            -9.699485             0.007937
C             2.800000            -9.699485             0.048363
C             3.500000           -10.911920             0.068999
C             4.900000           -10.911920             0.030712
C             5.600000           -12.124356             0.050113
C             7.000000           -12.124356             0.061057
H             7.550000           -13.076984             0.050148
C            -9.100000            -3.637307             0.076756
C            -9.800000            -4.849742             0.097423
C            -9.100000            -6.062178             0.073940
C            -7.700000            -6.062178             0.026754
H            -9.650000            -2.684679             0.025177
C            -7.000000            -7.274613             0.078341
C            -5.600000            -7.274613             0.083988
C            -4.900000            -8.487049             0.076733
C            -3.500000            -8.487049             0.036670
C            -2.800000            -9.699485             0.051579
C            -1.400000            -9.699485             0.044707
C            -0.700000           -10.911920             0.004900
C             0.700000           -10.911920             0.000071
C             1.400000           -12.124356             0.092711
C             2.800000           -12.124356             0.026795
C             3.500000           -13.336791             0.036869
C             4.900000           -13.336791             0.061017
H             5.450000           -14.289419             0.097545
C           -11.200000            -4.849742             0.057769
C           -11.900000            -6.062178             0.054473
C           -11.200000            -7.274613             0.046922
C            -9.800000            -7.274613             0.056839
H           -11.750000            -3.897114             0.079694
H           -13.000000            -6.062178             0.026127
H           -11.750000            -8.227241             0.068566
C            -9.100000            -8.487049             0.029957
C            -7.700000            -8.487049             0.069956
H            -9.650000            -9.439677             0.023388
C            -7.000000            -9.699485             0.096129
C            -5.600000            -9.699485             0.070348
H            -7.550000           -10.652112             0.018375
C            -4.900000           -10.911920             0.097557
C            -3.500000           -10.911920             0.094027
H            -5.450000           -11.864548             0.088644
C            -2.800000           -12.124356             0.015617
C            -1.400000           -12.124356             0.045506
H            -3.350000           -13.076984             0.034739
C            -0.700000           -13.336791             0.030051
C             0.700000           -13.336791             0.004459
H            -1.250000           -14.289419             0.046608
C             1.400000           -14.549227             0.017784
C             2.800000           -14.549227             0.052418
H             0.850000           -15.501855             0.071442
H             3.350000           -15.501855             0.035943
