138
isomero_50_49
C             0.700000             1.212436             0.060760
C            -0.700000             1.212436             0.083233
C            -1.400000             0.000000             0.013772
C            -0.700000            -1.212436             0.049278
C             0.700000            -1.212436             0.079682
C             1.400000            -0.000000             0.013912
H             1.250000             2.165064             0.029144
H            -1.250000             2.165064             0.082216
C             2.800000             0.000000             0.016163
C             1.400000            -2.424871             0.089167
C             2.800000            -2.424871             0.000572
C             3.500000            -1.212436             0.056859
H             3.350000             0.952628             0.070670
C             4.900000            -1.212436             0.017871
C             3.500000            -3.637307             0.084233
C             4.900000            -3.637307             0.055791
C             5.600000            -2.424871             0.033733
H             5.450000            -0.259808             0.004416
C             7.000000            -2.424871             0.042287
C             5.600000            -4.849742             0.035881
C             7.000000            -4.849742             0.027391
C             7.700000            -3.637307             0.029321
H             7.550000            -1.472243             0.002280
C             9.100000            -3.637307             0.017311
C             7.700000            -6.062178             0.054416
C             9.100000            -6.062178             0.013551
C             9.800000            -4.849742             0.007913
H             9.650000            -2.684679             0.050746
C            11.200000            -4.849742             0.075827
C             9.800000            -7.274613             0.052768
C            11.200000            -7.274613             0.046559
C            11.900000            -6.062178             0.013236
H            11.750000            -3.897114             0.098334
C            13.300000            -6.062178             0.046053
C            11.900000            -8.487049             0.062502
C            13.300000            -8.487049             0.081649
C            14.000000            -7.274613             0.070953
H            13.850000            -5.109550             0.056457
H            13.850000            -9.439677             0.056792
H            15.100000            -7.274613             0.048938
C            -2.800000             0.000000             0.065005
C            -3.500000            -1.212436             0.021926
C            -2.800000            -2.424871             0.076180
C            -1.400000            -2.424871             0.058241
H            -3.350000             0.952628             0.041854
C            -0.700000            -3.637307             0.096605
C             0.700000            -3.637307             0.038262
C             1.400000            -4.849742             0.092830
C             2.800000            -4.849742             0.005834
C             3.500000            -6.062178             0.090665
C             4.900000            -6.062178             0.081270
C             5.600000            -7.274613             0.014828
C             7.000000            -7.274613             0.084661
C             7.700000            -8.487049             0.024061
C             9.100000            -8.487049             0.016530
C             9.800000            -9.699485             0.075534
C            11.200000            -9.699485             0.023865
H            11.750000           -10.652112             0.023724
C            -4.900000            -1.212436             0.084032
C            -5.600000            -2.424871             0.000789
C            -4.900000            -3.637307             0.099900
C            -3.500000            -3.637307             0.028720
H            -5.450000            -0.259808             0.052751
C            -2.800000            -4.849742             0.036508
C            -1.400000            -4.849742             0.052949
B            -0.700000            -6.062178             0.071686
N             0.700000            -6.062178             0.044524
C             1.400000            -7.274613             0.051590
C             2.800000            -7.274613             0.050661
C             3.500000            -8.487049             0.047942
C             4.900000            -8.487049             0.079164
C             5.600000            -9.699485             0.069896
C             7.000000            -9.699485             0.043004
C             7.700000           -10.911920             0.087979
C             9.100000           -10.911920             0.005127
H             9.650000           -11.864548             0.062379
C            -7.000000            -2.424871             0.023356
C            -7.700000            -3.637307             0.039719
C            -7.000000            -4.849742             0.001989
C            -5.600000            -4.849742             0.074061
H            -7.550000            -1.472243             0.082590
C            -4.900000            -6.062178             0.014396
C            -3.500000            -6.062178             0.073777
C            -2.800000            -7.274613             0.090747
C            -1.400000            -7.274613             0.014839
C            -0.700000            -8.487049             0.002613
C             0.700000            -8.487049             0.077880
C             1.400000            -9.699485             0.083359
C             2.800000            -9.699485             0.011937
C             3.500000           -10.911920             0.028689
C             4.900000           -10.911920             0.085085
C             5.600000           -12.124356             0.046238
C             7.000000           -12.124356             0.018193
H             7.550000           -13.076984             0.058023
C            -9.100000            -3.637307             0.004588
C            -9.800000            -4.849742             0.054523
C            -9.100000            -6.062178             0.068548
C            -7.700000            -6.062178             0.077998
H            -9.650000            -2.684679             0.033673
C            -7.000000            -7.274613             0.033930
C            -5.600000            -7.274613             0.058073
C            -4.900000            -8.487049             0.009018
C            -3.500000            -8.487049             0.026668
C            -2.800000            -9.699485             0.055871
C            -1.400000            -9.699485             0.008867
C            -0.700000           -10.911920             0.063156
C             0.700000           -10.911920             0.044763
C             1.400000           -12.124356             0.078237
C             2.800000           -12.124356             0.090557
C             3.500000           -13.336791             0.081369
C             4.900000           -13.336791             0.018098
H             5.450000           -14.289419             0.094695
C           -11.200000            -4.849742             0.008554
C           -11.900000            -6.062178             0.067063
C           -11.200000            -7.274613             0.085027
C            -9.800000            -7.274613             0.099305
H           -11.750000            -3.897114             0.081790
H           -13.000000            -6.062178             0.010782
H           -11.750000            -8.227241             0.090448
C            -9.100000            -8.487049             0.064643
C            -7.700000            -8.487049             0.008806
H            -9.650000            -9.439677             0.018722
C            -7.000000            -9.699485             0.079613
C            -5.600000            -9.699485             0.083558
H            -7.550000           -10.652112             0.080160
C            -4.900000           -10.911920             0.097258
C            -3.500000           -10.911920             0.037939
H            -5.450000           -11.864548             0.051563
C            -2.800000           -12.124356             0.011453
C            -1.400000           -12.124356             0.063803
H            -3.350000           -13.076984             0.009138
C            -0.700000           -13.336791             0.055639
C             0.700000           -13.336791             0.041296
H            -1.250000           -14.289419             0.059000
C             1.400000           -14.549227             0.084944
C             2.800000           -14.549227             0.041185
H             0.850000           -15.501855             0.062499
H             3.350000           -15.501855             0.025681
