138
isomero_51_52
C             0.700000             1.212436             0.063881
C            -0.700000             1.212436             0.055282
C            -1.400000             0.000000             0.044583
C            -0.700000            -1.212436             0.022976
C             0.700000            -1.212436             0.051324
C             1.400000            -0.000000             0.004842
H             1.250000             2.165064             0.020069
H            -1.250000             2.165064             0.025725
C             2.800000             0.000000             0.029867
C             1.400000            -2.424871             0.034462
C             2.800000            -2.424871             0.035203
C             3.500000            -1.212436             0.087369
H             3.350000             0.952628             0.057302
C             4.900000            -1.212436             0.028646
C             3.500000            -3.637307             0.083617
C             4.900000            -3.637307             0.080780
C             5.600000            -2.424871             0.078563
H             5.450000            -0.259808             0.000641
C             7.000000            -2.424871             0.039548
C             5.600000            -4.849742             0.013204
C             7.000000            -4.849742             0.053358
C             7.700000            -3.637307             0.052391
H             7.550000            -1.472243             0.015751
C             9.100000            -3.637307             0.014464
C             7.700000            -6.062178             0.065876
C             9.100000            -6.062178             0.098197
C             9.800000            -4.849742             0.050527
H             9.650000            -2.684679             0.032244
C            11.200000            -4.849742             0.059622
C             9.800000            -7.274613             0.021858
C            11.200000            -7.274613             0.081301
C            11.900000            -6.062178             0.036492
H            11.750000            -3.897114             0.004770
C            13.300000            -6.062178             0.071533
C            11.900000            -8.487049             0.073914
C            13.300000            -8.487049             0.093984
C            14.000000            -7.274613             0.006380
H            13.850000            -5.109550             0.022446
H            13.850000            -9.439677             0.032111
H            15.100000            -7.274613             0.039706
C            -2.800000             0.000000             0.094773
C            -3.500000            -1.212436             0.010017
C            -2.800000            -2.424871             0.083476
C            -1.400000            -2.424871             0.096189
H            -3.350000             0.952628             0.021053
C            -0.700000            -3.637307             0.002381
C             0.700000            -3.637307             0.099087
C             1.400000            -4.849742             0.074425
C             2.800000            -4.849742             0.033350
C             3.500000            -6.062178             0.034639
C             4.900000            -6.062178             0.061488
C             5.600000            -7.274613             0.003395
C             7.000000            -7.274613             0.020904
C             7.700000            -8.487049             0.048147
C             9.100000            -8.487049             0.016085
C             9.800000            -9.699485             0.044214
C            11.200000            -9.699485             0.030444
H            11.750000           -10.652112             0.043289
C            -4.900000            -1.212436             0.075356
C            -5.600000            -2.424871             0.060086
C            -4.900000            -3.637307             0.099197
C            -3.500000            -3.637307             0.082056
H            -5.450000            -0.259808             0.031363
C            -2.800000            -4.849742             0.095094
C            -1.400000            -4.849742             0.073595
C            -0.700000            -6.062178             0.001570
C             0.700000            -6.062178             0.062973
C             1.400000            -7.274613             0.001994
C             2.800000            -7.274613             0.051537
C             3.500000            -8.487049             0.020147
C             4.900000            -8.487049             0.019414
C             5.600000            -9.699485             0.040116
C             7.000000            -9.699485             0.034977
C             7.700000           -10.911920             0.099344
C             9.100000           -10.911920             0.042389
H             9.650000           -11.864548             0.026514
C            -7.000000            -2.424871             0.081879
C            -7.700000            -3.637307             0.011523
C            -7.000000            -4.849742             0.030036
C            -5.600000            -4.849742             0.059662
H            -7.550000            -1.472243             0.013201
N            -4.900000            -6.062178             0.021501
B            -3.500000            -6.062178             0.005272
C            -2.800000            -7.274613             0.077861
C            -1.400000            -7.274613             0.098595
C            -0.700000            -8.487049             0.043844
C             0.700000            -8.487049             0.078665
C             1.400000            -9.699485             0.076671
C             2.800000            -9.699485             0.044792
C             3.500000           -10.911920             0.045636
C             4.900000           -10.911920             0.045906
C             5.600000           -12.124356             0.094011
C             7.000000           -12.124356             0.028575
H             7.550000           -13.076984             0.029458
C            -9.100000            -3.637307             0.020035
C            -9.800000            -4.849742             0.059509
C            -9.100000            -6.062178             0.062401
C            -7.700000            -6.062178             0.083772
H            -9.650000            -2.684679             0.087958
C            -7.000000            -7.274613             0.079240
C            -5.600000            -7.274613             0.070582
C            -4.900000            -8.487049             0.013125
C            -3.500000            -8.487049             0.051502
C            -2.800000            -9.699485             0.062961
C            -1.400000            -9.699485             0.092137
C            -0.700000           -10.911920             0.079451
C             0.700000           -10.911920             0.018839
C             1.400000           -12.124356             0.070553
C             2.800000           -12.124356             0.086288
C             3.500000           -13.336791             0.021886
C             4.900000           -13.336791             0.076405
H             5.450000           -14.289419             0.002367
C           -11.200000            -4.849742             0.041456
C           -11.900000            -6.062178             0.029141
C           -11.200000            -7.274613             0.047063
C            -9.800000            -7.274613             0.079661
H           -11.750000            -3.897114             0.048912
H           -13.000000            -6.062178             0.004184
H           -11.750000            -8.227241             0.037415
C            -9.100000            -8.487049             0.068324
C            -7.700000            -8.487049             0.024750
H            -9.650000            -9.439677             0.037999
C            -7.000000            -9.699485             0.055174
C            -5.600000            -9.699485             0.030429
H            -7.550000           -10.652112             0.070998
C            -4.900000           -10.911920             0.084310
C            -3.500000           -10.911920             0.024841
H            -5.450000           -11.864548             0.086973
C            -2.800000           -12.124356             0.052439
C            -1.400000           -12.124356             0.088054
H            -3.350000           -13.076984             0.005840
C            -0.700000           -13.336791             0.005294
C             0.700000           -13.336791             0.018672
H            -1.250000           -14.289419             0.074734
C             1.400000           -14.549227             0.077716
C             2.800000           -14.549227             0.072237
H             0.850000           -15.501855             0.087635
H             3.350000           -15.501855             0.024925
