138
isomero_44_57
C             0.700000             1.212436             0.046143
C            -0.700000             1.212436             0.094416
C            -1.400000             0.000000             0.036597
C            -0.700000            -1.212436             0.045657
C             0.700000            -1.212436             0.076216
C             1.400000            -0.000000             0.038072
H             1.250000             2.165064             0.052208
H            -1.250000             2.165064             0.026486
C             2.800000             0.000000             0.044640
C             1.400000            -2.424871             0.059274
C             2.800000            -2.424871             0.012236
C             3.500000            -1.212436             0.010792
H             3.350000             0.952628             0.029789
C             4.900000            -1.212436             0.021051
C             3.500000            -3.637307             0.043784
C             4.900000            -3.637307             0.073392
C             5.600000            -2.424871             0.045241
H             5.450000            -0.259808             0.066543
C             7.000000            -2.424871             0.056594
C             5.600000            -4.849742             0.029125
C             7.000000            -4.849742             0.042744
C             7.700000            -3.637307             0.016078
H             7.550000            -1.472243             0.067448
C             9.100000            -3.637307             0.067400
C             7.700000            -6.062178             0.072157
C             9.100000            -6.062178             0.042885
C             9.800000            -4.849742             0.003793
H             9.650000            -2.684679             0.042758
C            11.200000            -4.849742             0.073836
C             9.800000            -7.274613             0.088248
N            11.200000            -7.274613             0.038292
B            11.900000            -6.062178             0.028521
H            11.750000            -3.897114             0.071283
C            13.300000            -6.062178             0.007850
C            11.900000            -8.487049             0.064610
C            13.300000            -8.487049             0.057236
C            14.000000            -7.274613             0.092596
H            13.850000            -5.109550             0.014076
H            13.850000            -9.439677             0.002705
H            15.100000            -7.274613             0.095808
C            -2.800000             0.000000             0.057281
C            -3.500000            -1.212436             0.081758
C            -2.800000            -2.424871             0.071574
C            -1.400000            -2.424871             0.000635
H            -3.350000             0.952628             0.096441
C            -0.700000            -3.637307             0.028508
C             0.700000            -3.637307             0.064802
C             1.400000            -4.849742             0.018533
C             2.800000            -4.849742             0.045170
C             3.500000            -6.062178             0.083439
C             4.900000            -6.062178             0.038643
C             5.600000            -7.274613             0.021722
C             7.000000            -7.274613             0.029858
C             7.700000            -8.487049             0.065139
C             9.100000            -8.487049             0.033138
C             9.800000            -9.699485             0.066590
C            11.200000            -9.699485             0.008420
H            11.750000           -10.652112             0.079885
C            -4.900000            -1.212436             0.058644
C            -5.600000            -2.424871             0.017109
C            -4.900000            -3.637307             0.042965
C            -3.500000            -3.637307             0.071139
H            -5.450000            -0.259808             0.071686
C            -2.800000            -4.849742             0.072203
C            -1.400000            -4.849742             0.075893
C            -0.700000            -6.062178             0.009894
C             0.700000            -6.062178             0.060060
C             1.400000            -7.274613             0.064200
C             2.800000            -7.274613             0.064792
C             3.500000            -8.487049             0.032437
C             4.900000            -8.487049             0.061335
C             5.600000            -9.699485             0.062032
C             7.000000            -9.699485             0.026109
C             7.700000           -10.911920             0.067719
C             9.100000           -10.911920             0.012995
H             9.650000           -11.864548             0.089384
C            -7.000000            -2.424871             0.074907
C            -7.700000            -3.637307             0.062120
C            -7.000000            -4.849742             0.066596
C            -5.600000            -4.849742             0.079103
H            -7.550000            -1.472243             0.070967
C            -4.900000            -6.062178             0.015709
C            -3.500000            -6.062178             0.004384
C            -2.800000            -7.274613             0.002917
C            -1.400000            -7.274613             0.021033
C            -0.700000            -8.487049             0.065375
C             0.700000            -8.487049             0.051076
C             1.400000            -9.699485             0.081403
C             2.800000            -9.699485             0.026401
C             3.500000           -10.911920             0.009556
C             4.900000           -10.911920             0.093940
C             5.600000           -12.124356             0.057716
C             7.000000           -12.124356             0.065596
H             7.550000           -13.076984             0.082029
C            -9.100000            -3.637307             0.089141
C            -9.800000            -4.849742             0.036030
C            -9.100000            -6.062178             0.043152
C            -7.700000            -6.062178             0.040679
H            -9.650000            -2.684679             0.084033
C            -7.000000            -7.274613             0.073956
C            -5.600000            -7.274613             0.004129
C            -4.900000            -8.487049             0.069850
C            -3.500000            -8.487049             0.031164
C            -2.800000            -9.699485             0.046406
C            -1.400000            -9.699485             0.012832
C            -0.700000           -10.911920             0.033850
C             0.700000           -10.911920             0.022358
C             1.400000           -12.124356             0.070913
C             2.800000           -12.124356             0.017578
C             3.500000           -13.336791             0.004740
C             4.900000           -13.336791             0.038132
H             5.450000           -14.289419             0.091528
C           -11.200000            -4.849742             0.056922
C           -11.900000            -6.062178             0.049039
C           -11.200000            -7.274613             0.021686
C            -9.800000            -7.274613             0.005153
H           -11.750000            -3.897114             0.064324
H           -13.000000            -6.062178             0.036025
H           -11.750000            -8.227241             0.053107
C            -9.100000            -8.487049             0.043971
C            -7.700000            -8.487049             0.022619
H            -9.650000            -9.439677             0.056597
C            -7.000000            -9.699485             0.027501
C            -5.600000            -9.699485             0.033898
H            -7.550000           -10.652112             0.027244
C            -4.900000           -10.911920             0.075227
C            -3.500000           -10.911920             0.036749
H            -5.450000           -11.864548             0.061298
C            -2.800000           -12.124356             0.003811
C            -1.400000           -12.124356             0.018016
H            -3.350000           -13.076984             0.076601
C            -0.700000           -13.336791             0.039301
C             0.700000           -13.336791             0.093208
H            -1.250000           -14.289419             0.085800
C             1.400000           -14.549227             0.040618
C             2.800000           -14.549227             0.053220
H             0.850000           -15.501855             0.041690
H             3.350000           -15.501855             0.082350
