138
isomero_32_21
C             0.700000             1.212436             0.090692
C            -0.700000             1.212436             0.001554
C            -1.400000             0.000000             0.089871
C            -0.700000            -1.212436             0.050040
C             0.700000            -1.212436             0.022465
C             1.400000            -0.000000             0.055458
H             1.250000             2.165064             0.014591
H            -1.250000             2.165064             0.009340
C             2.800000             0.000000             0.047385
C             1.400000            -2.424871             0.023168
C             2.800000            -2.424871             0.022180
C             3.500000            -1.212436             0.023952
H             3.350000             0.952628             0.030386
C             4.900000            -1.212436             0.011609
C             3.500000            -3.637307             0.002242
C             4.900000            -3.637307             0.047684
C             5.600000            -2.424871             0.003374
H             5.450000            -0.259808             0.058538
C             7.000000            -2.424871             0.090980
C             5.600000            -4.849742             0.055748
C             7.000000            -4.849742             0.080261
C             7.700000            -3.637307             0.088238
H             7.550000            -1.472243             0.083743
N             9.100000            -3.637307             0.064503
C             7.700000            -6.062178             0.036527
C             9.100000            -6.062178             0.075106
B             9.800000            -4.849742             0.019254
H             9.650000            -2.684679             0.090223
C            11.200000            -4.849742             0.038579
C             9.800000            -7.274613             0.097159
C            11.200000            -7.274613             0.054051
C            11.900000            -6.062178             0.021002
H            11.750000            -3.897114             0.086332
C            13.300000            -6.062178             0.082853
C            11.900000            -8.487049             0.077436
C            13.300000            -8.487049             0.011630
C            14.000000            -7.274613             0.084216
H            13.850000            -5.109550             0.080541
H            13.850000            -9.439677             0.039455
H            15.100000            -7.274613             0.062220
C            -2.800000             0.000000             0.090999
C            -3.500000            -1.212436             0.044417
C            -2.800000            -2.424871             0.069364
C            -1.400000            -2.424871             0.085034
H            -3.350000             0.952628             0.041584
C            -0.700000            -3.637307             0.047865
C             0.700000            -3.637307             0.097343
C             1.400000            -4.849742             0.075838
C             2.800000            -4.849742             0.007401
C             3.500000            -6.062178             0.092883
C             4.900000            -6.062178             0.073834
C             5.600000            -7.274613             0.056077
C             7.000000            -7.274613             0.090979
C             7.700000            -8.487049             0.015008
C             9.100000            -8.487049             0.014846
C             9.800000            -9.699485             0.027736
C            11.200000            -9.699485             0.043458
H            11.750000           -10.652112             0.050355
C            -4.900000            -1.212436             0.096781
C            -5.600000            -2.424871             0.047976
C            -4.900000            -3.637307             0.084091
C            -3.500000            -3.637307             0.095025
H            -5.450000            -0.259808             0.021277
C            -2.800000            -4.849742             0.069445
C            -1.400000            -4.849742             0.040149
C            -0.700000            -6.062178             0.019479
C             0.700000            -6.062178             0.008470
C             1.400000            -7.274613             0.097853
C             2.800000            -7.274613             0.085633
C             3.500000            -8.487049             0.078260
C             4.900000            -8.487049             0.028236
C             5.600000            -9.699485             0.006930
C             7.000000            -9.699485             0.070400
C             7.700000           -10.911920             0.066671
C             9.100000           -10.911920             0.082960
H             9.650000           -11.864548             0.090381
C            -7.000000            -2.424871             0.090696
C            -7.700000            -3.637307             0.054266
C            -7.000000            -4.849742             0.015644
C            -5.600000            -4.849742             0.093540
H            -7.550000            -1.472243             0.047759
C            -4.900000            -6.062178             0.010900
C            -3.500000            -6.062178             0.027653
C            -2.800000            -7.274613             0.039789
C            -1.400000            -7.274613             0.060249
C            -0.700000            -8.487049             0.076489
C             0.700000            -8.487049             0.097142
C             1.400000            -9.699485             0.074833
C             2.800000            -9.699485             0.039495
C             3.500000           -10.911920             0.090856
C             4.900000           -10.911920             0.092176
C             5.600000           -12.124356             0.002098
C             7.000000           -12.124356             0.037823
H             7.550000           -13.076984             0.078694
C            -9.100000            -3.637307             0.040250
C            -9.800000            -4.849742             0.087208
C            -9.100000            -6.062178             0.061338
C            -7.700000            -6.062178             0.043373
H            -9.650000            -2.684679             0.067898
C            -7.000000            -7.274613             0.093635
C            -5.600000            -7.274613             0.091384
C            -4.900000            -8.487049             0.014669
C            -3.500000            -8.487049             0.083472
C            -2.800000            -9.699485             0.085014
C            -1.400000            -9.699485             0.098486
C            -0.700000           -10.911920             0.081301
C             0.700000           -10.911920             0.051470
C             1.400000           -12.124356             0.074924
C             2.800000           -12.124356             0.031427
C             3.500000           -13.336791             0.085865
C             4.900000           -13.336791             0.011549
H             5.450000           -14.289419             0.026792
C           -11.200000            -4.849742             0.042990
C           -11.900000            -6.062178             0.084137
C           -11.200000            -7.274613             0.090466
C            -9.800000            -7.274613             0.002665
H           -11.750000            -3.897114             0.044785
H           -13.000000            -6.062178             0.005891
H           -11.750000            -8.227241             0.044575
C            -9.100000            -8.487049             0.062383
C            -7.700000            -8.487049             0.067177
H            -9.650000            -9.439677             0.031725
C            -7.000000            -9.699485             0.087803
C            -5.600000            -9.699485             0.052831
H            -7.550000           -10.652112             0.077543
C            -4.900000           -10.911920             0.054831
C            -3.500000           -10.911920             0.061511
H            -5.450000           -11.864548             0.098317
C            -2.800000           -12.124356             0.038764
C            -1.400000           -12.124356             0.066924
H            -3.350000           -13.076984             0.070519
C            -0.700000           -13.336791             0.096112
C             0.700000           -13.336791             0.071171
H            -1.250000           -14.289419             0.062026
C             1.400000           -14.549227             0.043852
C             2.800000           -14.549227             0.060052
H             0.850000           -15.501855             0.092547
H             3.350000           -15.501855             0.035248
