138
isomero_48_47
C             0.700000             1.212436             0.051827
C            -0.700000             1.212436             0.087992
C            -1.400000             0.000000             0.039284
C            -0.700000            -1.212436             0.010277
C             0.700000            -1.212436             0.051808
C             1.400000            -0.000000             0.036754
H             1.250000             2.165064             0.084116
H            -1.250000             2.165064             0.036374
C             2.800000             0.000000             0.050107
C             1.400000            -2.424871             0.013477
C             2.800000            -2.424871             0.016575
C             3.500000            -1.212436             0.098542
H             3.350000             0.952628             0.063516
C             4.900000            -1.212436             0.020223
C             3.500000            -3.637307             0.074717
C             4.900000            -3.637307             0.061097
C             5.600000            -2.424871             0.099444
H             5.450000            -0.259808             0.027397
C             7.000000            -2.424871             0.083834
C             5.600000            -4.849742             0.096245
C             7.000000            -4.849742             0.071510
C             7.700000            -3.637307             0.009872
H             7.550000            -1.472243             0.059714
C             9.100000            -3.637307             0.060332
C             7.700000            -6.062178             0.097656
C             9.100000            -6.062178             0.096018
C             9.800000            -4.849742             0.039439
H             9.650000            -2.684679             0.055783
C            11.200000            -4.849742             0.061519
C             9.800000            -7.274613             0.045709
C            11.200000            -7.274613             0.035256
C            11.900000            -6.062178             0.076616
H            11.750000            -3.897114             0.026966
C            13.300000            -6.062178             0.014779
C            11.900000            -8.487049             0.024301
C            13.300000            -8.487049             0.032167
C            14.000000            -7.274613             0.028230
H            13.850000            -5.109550             0.077712
H            13.850000            -9.439677             0.080629
H            15.100000            -7.274613             0.093347
C            -2.800000             0.000000             0.006131
C            -3.500000            -1.212436             0.020012
C            -2.800000            -2.424871             0.088476
C            -1.400000            -2.424871             0.029729
H            -3.350000             0.952628             0.077836
C            -0.700000            -3.637307             0.025447
C             0.700000            -3.637307             0.081449
C             1.400000            -4.849742             0.076729
C             2.800000            -4.849742             0.026291
B             3.500000            -6.062178             0.075146
N             4.900000            -6.062178             0.073516
C             5.600000            -7.274613             0.076381
C             7.000000            -7.274613             0.004791
C             7.700000            -8.487049             0.016787
C             9.100000            -8.487049             0.064295
C             9.800000            -9.699485             0.011521
C            11.200000            -9.699485             0.051462
H            11.750000           -10.652112             0.092915
C            -4.900000            -1.212436             0.097092
C            -5.600000            -2.424871             0.050241
C            -4.900000            -3.637307             0.018725
C            -3.500000            -3.637307             0.076499
H            -5.450000            -0.259808             0.040542
C            -2.800000            -4.849742             0.033614
C            -1.400000            -4.849742             0.065066
C            -0.700000            -6.062178             0.058648
C             0.700000            -6.062178             0.050597
C             1.400000            -7.274613             0.036494
C             2.800000            -7.274613             0.088570
C             3.500000            -8.487049             0.043289
C             4.900000            -8.487049             0.026472
C             5.600000            -9.699485             0.063363
C             7.000000            -9.699485             0.034368
C             7.700000           -10.911920             0.052715
C             9.100000           -10.911920             0.039238
H             9.650000           -11.864548             0.003791
C            -7.000000            -2.424871             0.047066
C            -7.700000            -3.637307             0.062591
C            -7.000000            -4.849742             0.036138
C            -5.600000            -4.849742             0.003844
H            -7.550000            -1.472243             0.011606
C            -4.900000            -6.062178             0.052734
C            -3.500000            -6.062178             0.006111
C            -2.800000            -7.274613             0.075533
C            -1.400000            -7.274613             0.012840
C            -0.700000            -8.487049             0.012471
C             0.700000            -8.487049             0.022078
C             1.400000            -9.699485             0.052396
C             2.800000            -9.699485             0.039112
C             3.500000           -10.911920             0.074880
C             4.900000           -10.911920             0.034295
C             5.600000           -12.124356             0.026821
C             7.000000           -12.124356             0.088144
H             7.550000           -13.076984             0.002857
C            -9.100000            -3.637307             0.082561
C            -9.800000            -4.849742             0.070380
C            -9.100000            -6.062178             0.095279
C            -7.700000            -6.062178             0.026863
H            -9.650000            -2.684679             0.062147
C            -7.000000            -7.274613             0.098641
C            -5.600000            -7.274613             0.049543
C            -4.900000            -8.487049             0.023895
C            -3.500000            -8.487049             0.056254
C            -2.800000            -9.699485             0.027913
C            -1.400000            -9.699485             0.071024
C            -0.700000           -10.911920             0.048141
C             0.700000           -10.911920             0.015986
C             1.400000           -12.124356             0.088465
C             2.800000           -12.124356             0.060527
C             3.500000           -13.336791             0.079355
C             4.900000           -13.336791             0.002161
H             5.450000           -14.289419             0.096971
C           -11.200000            -4.849742             0.049987
C           -11.900000            -6.062178             0.061400
C           -11.200000            -7.274613             0.004790
C            -9.800000            -7.274613             0.033227
H           -11.750000            -3.897114             0.088764
H           -13.000000            -6.062178             0.035916
H           -11.750000            -8.227241             0.057258
C            -9.100000            -8.487049             0.014458
C            -7.700000            -8.487049             0.021571
H            -9.650000            -9.439677             0.040982
C            -7.000000            -9.699485             0.081470
C            -5.600000            -9.699485             0.087308
H            -7.550000           -10.652112             0.030378
C            -4.900000           -10.911920             0.031536
C            -3.500000           -10.911920             0.091489
H            -5.450000           -11.864548             0.016417
C            -2.800000           -12.124356             0.088956
C            -1.400000           -12.124356             0.028913
H            -3.350000           -13.076984             0.085866
C            -0.700000           -13.336791             0.016792
C             0.700000           -13.336791             0.095645
H            -1.250000           -14.289419             0.006855
C             1.400000           -14.549227             0.037217
C             2.800000           -14.549227             0.082737
H             0.850000           -15.501855             0.000220
H             3.350000           -15.501855             0.057540
