138
isomero_37_50
C             0.700000             1.212436             0.019100
C            -0.700000             1.212436             0.018765
C            -1.400000             0.000000             0.003147
C            -0.700000            -1.212436             0.034499
C             0.700000            -1.212436             0.049229
C             1.400000            -0.000000             0.082029
H             1.250000             2.165064             0.026837
H            -1.250000             2.165064             0.037911
C             2.800000             0.000000             0.049705
C             1.400000            -2.424871             0.035202
C             2.800000            -2.424871             0.061473
C             3.500000            -1.212436             0.075330
H             3.350000             0.952628             0.070814
C             4.900000            -1.212436             0.043620
C             3.500000            -3.637307             0.056753
C             4.900000            -3.637307             0.004580
C             5.600000            -2.424871             0.094234
H             5.450000            -0.259808             0.061431
C             7.000000            -2.424871             0.047911
C             5.600000            -4.849742             0.075620
C             7.000000            -4.849742             0.091578
C             7.700000            -3.637307             0.075115
H             7.550000            -1.472243             0.017683
C             9.100000            -3.637307             0.088437
C             7.700000            -6.062178             0.080962
C             9.100000            -6.062178             0.078595
C             9.800000            -4.849742             0.044576
H             9.650000            -2.684679             0.065630
C            11.200000            -4.849742             0.021231
C             9.800000            -7.274613             0.065314
C            11.200000            -7.274613             0.064687
C            11.900000            -6.062178             0.017313
H            11.750000            -3.897114             0.033192
C            13.300000            -6.062178             0.065392
C            11.900000            -8.487049             0.067810
C            13.300000            -8.487049             0.012374
C            14.000000            -7.274613             0.081066
H            13.850000            -5.109550             0.003505
H            13.850000            -9.439677             0.090783
H            15.100000            -7.274613             0.052207
C            -2.800000             0.000000             0.070188
C            -3.500000            -1.212436             0.018190
C            -2.800000            -2.424871             0.017121
C            -1.400000            -2.424871             0.038503
H            -3.350000             0.952628             0.079364
C            -0.700000            -3.637307             0.032278
C             0.700000            -3.637307             0.019503
C             1.400000            -4.849742             0.075563
C             2.800000            -4.849742             0.061226
C             3.500000            -6.062178             0.094299
C             4.900000            -6.062178             0.028620
C             5.600000            -7.274613             0.008347
C             7.000000            -7.274613             0.083137
C             7.700000            -8.487049             0.046251
C             9.100000            -8.487049             0.025560
C             9.800000            -9.699485             0.018589
C            11.200000            -9.699485             0.073098
H            11.750000           -10.652112             0.096673
C            -4.900000            -1.212436             0.093159
C            -5.600000            -2.424871             0.039194
C            -4.900000            -3.637307             0.009730
C            -3.500000            -3.637307             0.080467
H            -5.450000            -0.259808             0.088032
C            -2.800000            -4.849742             0.094101
B            -1.400000            -4.849742             0.014426
N            -0.700000            -6.062178             0.025117
C             0.700000            -6.062178             0.003158
C             1.400000            -7.274613             0.086615
C             2.800000            -7.274613             0.082754
C             3.500000            -8.487049             0.058610
C             4.900000            -8.487049             0.053568
C             5.600000            -9.699485             0.019436
C             7.000000            -9.699485             0.078887
C             7.700000           -10.911920             0.084750
C             9.100000           -10.911920             0.054384
H             9.650000           -11.864548             0.096241
C            -7.000000            -2.424871             0.070310
C            -7.700000            -3.637307             0.023800
C            -7.000000            -4.849742             0.054030
C            -5.600000            -4.849742             0.052043
H            -7.550000            -1.472243             0.062280
C            -4.900000            -6.062178             0.064622
C            -3.500000            -6.062178             0.096581
C            -2.800000            -7.274613             0.066234
C            -1.400000            -7.274613             0.033770
C            -0.700000            -8.487049             0.094615
C             0.700000            -8.487049             0.093317
C             1.400000            -9.699485             0.001055
C             2.800000            -9.699485             0.094352
C             3.500000           -10.911920             0.029352
C             4.900000           -10.911920             0.042408
C             5.600000           -12.124356             0.043126
C             7.000000           -12.124356             0.004175
H             7.550000           -13.076984             0.010727
C            -9.100000            -3.637307             0.065898
C            -9.800000            -4.849742             0.098304
C            -9.100000            -6.062178             0.060104
C            -7.700000            -6.062178             0.036432
H            -9.650000            -2.684679             0.084940
C            -7.000000            -7.274613             0.074227
C            -5.600000            -7.274613             0.089404
C            -4.900000            -8.487049             0.087029
C            -3.500000            -8.487049             0.097053
C            -2.800000            -9.699485             0.034377
C            -1.400000            -9.699485             0.057232
C            -0.700000           -10.911920             0.070269
C             0.700000           -10.911920             0.036844
C             1.400000           -12.124356             0.037691
C             2.800000           -12.124356             0.009626
C             3.500000           -13.336791             0.017227
C             4.900000           -13.336791             0.014043
H             5.450000           -14.289419             0.050714
C           -11.200000            -4.849742             0.054221
C           -11.900000            -6.062178             0.012261
C           -11.200000            -7.274613             0.022676
C            -9.800000            -7.274613             0.090715
H           -11.750000            -3.897114             0.099098
H           -13.000000            -6.062178             0.096291
H           -11.750000            -8.227241             0.078170
C            -9.100000            -8.487049             0.015315
C            -7.700000            -8.487049             0.020884
H            -9.650000            -9.439677             0.047858
C            -7.000000            -9.699485             0.082984
C            -5.600000            -9.699485             0.006076
H            -7.550000           -10.652112             0.003279
C            -4.900000           -10.911920             0.072515
C            -3.500000           -10.911920             0.005778
H            -5.450000           -11.864548             0.033358
C            -2.800000           -12.124356             0.035361
C            -1.400000           -12.124356             0.005376
H            -3.350000           -13.076984             0.045153
C            -0.700000           -13.336791             0.062980
C             0.700000           -13.336791             0.050721
H            -1.250000           -14.289419             0.082654
C             1.400000           -14.549227             0.006998
C             2.800000           -14.549227             0.090913
H             0.850000           -15.501855             0.074660
H             3.350000           -15.501855             0.074499
