138
isomero_12_19
C             0.700000             1.212436             0.017179
C            -0.700000             1.212436             0.093957
C            -1.400000             0.000000             0.037090
C            -0.700000            -1.212436             0.037171
C             0.700000            -1.212436             0.078709
C             1.400000            -0.000000             0.079831
H             1.250000             2.165064             0.079835
H            -1.250000             2.165064             0.074067
C             2.800000             0.000000             0.000465
C             1.400000            -2.424871             0.015991
C             2.800000            -2.424871             0.061925
C             3.500000            -1.212436             0.001990
H             3.350000             0.952628             0.073139
C             4.900000            -1.212436             0.076885
C             3.500000            -3.637307             0.088609
C             4.900000            -3.637307             0.010096
C             5.600000            -2.424871             0.049356
H             5.450000            -0.259808             0.001011
C             7.000000            -2.424871             0.020502
C             5.600000            -4.849742             0.032811
C             7.000000            -4.849742             0.066975
C             7.700000            -3.637307             0.033663
H             7.550000            -1.472243             0.001057
C             9.100000            -3.637307             0.043960
C             7.700000            -6.062178             0.097582
C             9.100000            -6.062178             0.047312
C             9.800000            -4.849742             0.042724
H             9.650000            -2.684679             0.041927
C            11.200000            -4.849742             0.071442
C             9.800000            -7.274613             0.009839
C            11.200000            -7.274613             0.089199
C            11.900000            -6.062178             0.034004
H            11.750000            -3.897114             0.074581
C            13.300000            -6.062178             0.088858
C            11.900000            -8.487049             0.039122
C            13.300000            -8.487049             0.039636
C            14.000000            -7.274613             0.062634
H            13.850000            -5.109550             0.008497
H            13.850000            -9.439677             0.007202
H            15.100000            -7.274613             0.097491
C            -2.800000             0.000000             0.057892
C            -3.500000            -1.212436             0.090154
C            -2.800000            -2.424871             0.083929
C            -1.400000            -2.424871             0.027932
H            -3.350000             0.952628             0.003985
C            -0.700000            -3.637307             0.065979
C             0.700000            -3.637307             0.023255
C             1.400000            -4.849742             0.095633
C             2.800000            -4.849742             0.074370
C             3.500000            -6.062178             0.054117
C             4.900000            -6.062178             0.043214
C             5.600000            -7.274613             0.069288
C             7.000000            -7.274613             0.006378
C             7.700000            -8.487049             0.099599
C             9.100000            -8.487049             0.044008
C             9.800000            -9.699485             0.017834
C            11.200000            -9.699485             0.009391
H            11.750000           -10.652112             0.022534
B            -4.900000            -1.212436             0.078392
N            -5.600000            -2.424871             0.063334
C            -4.900000            -3.637307             0.001934
C            -3.500000            -3.637307             0.028830
H            -5.450000            -0.259808             0.061871
C            -2.800000            -4.849742             0.064726
C            -1.400000            -4.849742             0.034699
C            -0.700000            -6.062178             0.038112
C             0.700000            -6.062178             0.072149
C             1.400000            -7.274613             0.073931
C             2.800000            -7.274613             0.073081
C             3.500000            -8.487049             0.039858
C             4.900000            -8.487049             0.029479
C             5.600000            -9.699485             0.025382
C             7.000000            -9.699485             0.066784
C             7.700000           -10.911920             0.077883
C             9.100000           -10.911920             0.084618
H             9.650000           -11.864548             0.089244
C            -7.000000            -2.424871             0.025489
C            -7.700000            -3.637307             0.039027
C            -7.000000            -4.849742             0.001043
C            -5.600000            -4.849742             0.056670
H            -7.550000            -1.472243             0.050442
C            -4.900000            -6.062178             0.058505
C            -3.500000            -6.062178             0.087385
C            -2.800000            -7.274613             0.081886
C            -1.400000            -7.274613             0.006534
C            -0.700000            -8.487049             0.054802
C             0.700000            -8.487049             0.024802
C             1.400000            -9.699485             0.089207
C             2.800000            -9.699485             0.006298
C             3.500000           -10.911920             0.093406
C             4.900000           -10.911920             0.011385
C             5.600000           -12.124356             0.071689
C             7.000000           -12.124356             0.034711
H             7.550000           -13.076984             0.017868
C            -9.100000            -3.637307             0.087039
C            -9.800000            -4.849742             0.011762
C            -9.100000            -6.062178             0.008874
C            -7.700000            -6.062178             0.021114
H            -9.650000            -2.684679             0.045431
C            -7.000000            -7.274613             0.025566
C            -5.600000            -7.274613             0.055889
C            -4.900000            -8.487049             0.004678
C            -3.500000            -8.487049             0.082781
C            -2.800000            -9.699485             0.097790
C            -1.400000            -9.699485             0.048825
C            -0.700000           -10.911920             0.052306
C             0.700000           -10.911920             0.055010
C             1.400000           -12.124356             0.023248
C             2.800000           -12.124356             0.001265
C             3.500000           -13.336791             0.094034
C             4.900000           -13.336791             0.099390
H             5.450000           -14.289419             0.077799
C           -11.200000            -4.849742             0.019541
C           -11.900000            -6.062178             0.097778
C           -11.200000            -7.274613             0.090354
C            -9.800000            -7.274613             0.092891
H           -11.750000            -3.897114             0.089431
H           -13.000000            -6.062178             0.071871
H           -11.750000            -8.227241             0.002947
C            -9.100000            -8.487049             0.085372
C            -7.700000            -8.487049             0.069816
H            -9.650000            -9.439677             0.039550
C            -7.000000            -9.699485             0.036257
C            -5.600000            -9.699485             0.021062
H            -7.550000           -10.652112             0.090649
C            -4.900000           -10.911920             0.024122
C            -3.500000           -10.911920             0.028550
H            -5.450000           -11.864548             0.057303
C            -2.800000           -12.124356             0.001364
C            -1.400000           -12.124356             0.071851
H            -3.350000           -13.076984             0.041411
C            -0.700000           -13.336791             0.047153
C             0.700000           -13.336791             0.049778
H            -1.250000           -14.289419             0.004551
C             1.400000           -14.549227             0.097064
C             2.800000           -14.549227             0.050492
H             0.850000           -15.501855             0.030565
H             3.350000           -15.501855             0.015213
