138
isomero_34_23
C             0.700000             1.212436             0.099196
C            -0.700000             1.212436             0.075531
C            -1.400000             0.000000             0.032399
C            -0.700000            -1.212436             0.077622
C             0.700000            -1.212436             0.097764
C             1.400000            -0.000000             0.046381
H             1.250000             2.165064             0.091132
H            -1.250000             2.165064             0.054947
C             2.800000             0.000000             0.094628
C             1.400000            -2.424871             0.051300
C             2.800000            -2.424871             0.015669
C             3.500000            -1.212436             0.063188
H             3.350000             0.952628             0.091330
C             4.900000            -1.212436             0.031493
C             3.500000            -3.637307             0.053376
N             4.900000            -3.637307             0.003504
C             5.600000            -2.424871             0.007466
H             5.450000            -0.259808             0.098228
C             7.000000            -2.424871             0.070447
B             5.600000            -4.849742             0.003114
C             7.000000            -4.849742             0.064892
C             7.700000            -3.637307             0.047572
H             7.550000            -1.472243             0.066741
C             9.100000            -3.637307             0.015506
C             7.700000            -6.062178             0.034745
C             9.100000            -6.062178             0.033162
C             9.800000            -4.849742             0.039700
H             9.650000            -2.684679             0.047792
C            11.200000            -4.849742             0.031512
C             9.800000            -7.274613             0.080456
C            11.200000            -7.274613             0.090702
C            11.900000            -6.062178             0.056346
H            11.750000            -3.897114             0.092040
C            13.300000            -6.062178             0.065718
C            11.900000            -8.487049             0.060640
C            13.300000            -8.487049             0.040625
C            14.000000            -7.274613             0.093373
H            13.850000            -5.109550             0.089979
H            13.850000            -9.439677             0.098691
H            15.100000            -7.274613             0.058404
C            -2.800000             0.000000             0.068590
C            -3.500000            -1.212436             0.074581
C            -2.800000            -2.424871             0.015806
C            -1.400000            -2.424871             0.095384
H            -3.350000             0.952628             0.019220
C            -0.700000            -3.637307             0.088387
C             0.700000            -3.637307             0.073247
C             1.400000            -4.849742             0.036060
C             2.800000            -4.849742             0.069944
C             3.500000            -6.062178             0.071922
C             4.900000            -6.062178             0.003870
C             5.600000            -7.274613             0.042857
C             7.000000            -7.274613             0.026793
C             7.700000            -8.487049             0.061159
C             9.100000            -8.487049             0.083230
C             9.800000            -9.699485             0.041480
C            11.200000            -9.699485             0.039881
H            11.750000           -10.652112             0.037462
C            -4.900000            -1.212436             0.041110
C            -5.600000            -2.424871             0.047805
C            -4.900000            -3.637307             0.015518
C            -3.500000            -3.637307             0.080669
H            -5.450000            -0.259808             0.080659
C            -2.800000            -4.849742             0.036634
C            -1.400000            -4.849742             0.069109
C            -0.700000            -6.062178             0.028227
C             0.700000            -6.062178             0.004096
C             1.400000            -7.274613             0.009411
C             2.800000            -7.274613             0.043259
C             3.500000            -8.487049             0.017786
C             4.900000            -8.487049             0.046105
C             5.600000            -9.699485             0.010760
C             7.000000            -9.699485             0.075003
C             7.700000           -10.911920             0.056008
C             9.100000           -10.911920             0.064540
H             9.650000           -11.864548             0.098875
C            -7.000000            -2.424871             0.000803
C            -7.700000            -3.637307             0.072515
C            -7.000000            -4.849742             0.051981
C            -5.600000            -4.849742             0.077192
H            -7.550000            -1.472243             0.047038
C            -4.900000            -6.062178             0.001271
C            -3.500000            -6.062178             0.065729
C            -2.800000            -7.274613             0.070070
C            -1.400000            -7.274613             0.090453
C            -0.700000            -8.487049             0.056795
C             0.700000            -8.487049             0.056259
C             1.400000            -9.699485             0.041315
C             2.800000            -9.699485             0.042319
C             3.500000           -10.911920             0.042981
C             4.900000           -10.911920             0.057093
C             5.600000           -12.124356             0.002158
C             7.000000           -12.124356             0.024807
H             7.550000           -13.076984             0.085703
C            -9.100000            -3.637307             0.000667
C            -9.800000            -4.849742             0.004737
C            -9.100000            -6.062178             0.087242
C            -7.700000            -6.062178             0.054914
H            -9.650000            -2.684679             0.012989
C            -7.000000            -7.274613             0.002733
C            -5.600000            -7.274613             0.042288
C            -4.900000            -8.487049             0.004255
C            -3.500000            -8.487049             0.066079
C            -2.800000            -9.699485             0.008857
C            -1.400000            -9.699485             0.025532
C            -0.700000           -10.911920             0.015108
C             0.700000           -10.911920             0.026260
C             1.400000           -12.124356             0.081353
C             2.800000           -12.124356             0.045768
C             3.500000           -13.336791             0.013877
C             4.900000           -13.336791             0.049053
H             5.450000           -14.289419             0.039889
C           -11.200000            -4.849742             0.077447
C           -11.900000            -6.062178             0.038128
C           -11.200000            -7.274613             0.018498
C            -9.800000            -7.274613             0.069902
H           -11.750000            -3.897114             0.017837
H           -13.000000            -6.062178             0.080911
H           -11.750000            -8.227241             0.039952
C            -9.100000            -8.487049             0.081001
C            -7.700000            -8.487049             0.062698
H            -9.650000            -9.439677             0.001565
C            -7.000000            -9.699485             0.064940
C            -5.600000            -9.699485             0.016176
H            -7.550000           -10.652112             0.093666
C            -4.900000           -10.911920             0.006437
C            -3.500000           -10.911920             0.091564
H            -5.450000           -11.864548             0.068925
C            -2.800000           -12.124356             0.008675
C            -1.400000           -12.124356             0.067027
H            -3.350000           -13.076984             0.092737
C            -0.700000           -13.336791             0.023537
C             0.700000           -13.336791             0.081251
H            -1.250000           -14.289419             0.029533
C             1.400000           -14.549227             0.083651
C             2.800000           -14.549227             0.097431
H             0.850000           -15.501855             0.060317
H             3.350000           -15.501855             0.042821
