138
isomero_47_60
C             0.700000             1.212436             0.087466
C            -0.700000             1.212436             0.068911
C            -1.400000             0.000000             0.095978
C            -0.700000            -1.212436             0.016186
C             0.700000            -1.212436             0.037622
C             1.400000            -0.000000             0.063787
H             1.250000             2.165064             0.011291
H            -1.250000             2.165064             0.099336
C             2.800000             0.000000             0.031769
C             1.400000            -2.424871             0.062880
C             2.800000            -2.424871             0.068178
C             3.500000            -1.212436             0.075838
H             3.350000             0.952628             0.027043
C             4.900000            -1.212436             0.003541
C             3.500000            -3.637307             0.080638
C             4.900000            -3.637307             0.098088
C             5.600000            -2.424871             0.071738
H             5.450000            -0.259808             0.099380
C             7.000000            -2.424871             0.004689
C             5.600000            -4.849742             0.001916
C             7.000000            -4.849742             0.066720
C             7.700000            -3.637307             0.083994
H             7.550000            -1.472243             0.074326
C             9.100000            -3.637307             0.027657
C             7.700000            -6.062178             0.096821
C             9.100000            -6.062178             0.043511
C             9.800000            -4.849742             0.048052
H             9.650000            -2.684679             0.033256
C            11.200000            -4.849742             0.074230
C             9.800000            -7.274613             0.038539
C            11.200000            -7.274613             0.092445
C            11.900000            -6.062178             0.075733
H            11.750000            -3.897114             0.081968
C            13.300000            -6.062178             0.048835
C            11.900000            -8.487049             0.016010
C            13.300000            -8.487049             0.056779
C            14.000000            -7.274613             0.000872
H            13.850000            -5.109550             0.044742
H            13.850000            -9.439677             0.012992
H            15.100000            -7.274613             0.077709
C            -2.800000             0.000000             0.046463
C            -3.500000            -1.212436             0.094930
C            -2.800000            -2.424871             0.071307
C            -1.400000            -2.424871             0.070841
H            -3.350000             0.952628             0.088644
C            -0.700000            -3.637307             0.035549
C             0.700000            -3.637307             0.014584
C             1.400000            -4.849742             0.056632
C             2.800000            -4.849742             0.090076
C             3.500000            -6.062178             0.049257
B             4.900000            -6.062178             0.062339
N             5.600000            -7.274613             0.084790
C             7.000000            -7.274613             0.035624
C             7.700000            -8.487049             0.082360
C             9.100000            -8.487049             0.059675
C             9.800000            -9.699485             0.066934
C            11.200000            -9.699485             0.023830
H            11.750000           -10.652112             0.052869
C            -4.900000            -1.212436             0.042757
C            -5.600000            -2.424871             0.082969
C            -4.900000            -3.637307             0.039087
C            -3.500000            -3.637307             0.088377
H            -5.450000            -0.259808             0.019811
C            -2.800000            -4.849742             0.091843
C            -1.400000            -4.849742             0.016098
C            -0.700000            -6.062178             0.044166
C             0.700000            -6.062178             0.089046
C             1.400000            -7.274613             0.076541
C             2.800000            -7.274613             0.052535
C             3.500000            -8.487049             0.087229
C             4.900000            -8.487049             0.005014
C             5.600000            -9.699485             0.091714
C             7.000000            -9.699485             0.055236
C             7.700000           -10.911920             0.074385
C             9.100000           -10.911920             0.057845
H             9.650000           -11.864548             0.010521
C            -7.000000            -2.424871             0.007349
C            -7.700000            -3.637307             0.012012
C            -7.000000            -4.849742             0.039021
C            -5.600000            -4.849742             0.088247
H            -7.550000            -1.472243             0.050633
C            -4.900000            -6.062178             0.086688
C            -3.500000            -6.062178             0.007470
C            -2.800000            -7.274613             0.004064
C            -1.400000            -7.274613             0.086955
C            -0.700000            -8.487049             0.077415
C             0.700000            -8.487049             0.006258
C             1.400000            -9.699485             0.098829
C             2.800000            -9.699485             0.096225
C             3.500000           -10.911920             0.016090
C             4.900000           -10.911920             0.007098
C             5.600000           -12.124356             0.033617
C             7.000000           -12.124356             0.029823
H             7.550000           -13.076984             0.082389
C            -9.100000            -3.637307             0.099043
C            -9.800000            -4.849742             0.064854
C            -9.100000            -6.062178             0.044413
C            -7.700000            -6.062178             0.076570
H            -9.650000            -2.684679             0.033640
C            -7.000000            -7.274613             0.052329
C            -5.600000            -7.274613             0.071576
C            -4.900000            -8.487049             0.046314
C            -3.500000            -8.487049             0.000119
C            -2.800000            -9.699485             0.062614
C            -1.400000            -9.699485             0.096023
C            -0.700000           -10.911920             0.047459
C             0.700000           -10.911920             0.099788
C             1.400000           -12.124356             0.004226
C             2.800000           -12.124356             0.076493
C             3.500000           -13.336791             0.047996
C             4.900000           -13.336791             0.034275
H             5.450000           -14.289419             0.069750
C           -11.200000            -4.849742             0.039351
C           -11.900000            -6.062178             0.063086
C           -11.200000            -7.274613             0.036614
C            -9.800000            -7.274613             0.036672
H           -11.750000            -3.897114             0.011625
H           -13.000000            -6.062178             0.041893
H           -11.750000            -8.227241             0.025811
C            -9.100000            -8.487049             0.031486
C            -7.700000            -8.487049             0.058397
H            -9.650000            -9.439677             0.094663
C            -7.000000            -9.699485             0.080305
C            -5.600000            -9.699485             0.014610
H            -7.550000           -10.652112             0.012334
C            -4.900000           -10.911920             0.008744
C            -3.500000           -10.911920             0.043013
H            -5.450000           -11.864548             0.049668
C            -2.800000           -12.124356             0.026689
C            -1.400000           -12.124356             0.089831
H            -3.350000           -13.076984             0.073516
C            -0.700000           -13.336791             0.095205
C             0.700000           -13.336791             0.025350
H            -1.250000           -14.289419             0.035081
C             1.400000           -14.549227             0.019486
C             2.800000           -14.549227             0.062837
H             0.850000           -15.501855             0.081263
H             3.350000           -15.501855             0.019091
