138
isomero_45_58
C             0.700000             1.212436             0.027502
C            -0.700000             1.212436             0.072685
C            -1.400000             0.000000             0.024628
C            -0.700000            -1.212436             0.021147
C             0.700000            -1.212436             0.096207
C             1.400000            -0.000000             0.068108
H             1.250000             2.165064             0.010081
H            -1.250000             2.165064             0.064471
C             2.800000             0.000000             0.013366
C             1.400000            -2.424871             0.083765
C             2.800000            -2.424871             0.092620
C             3.500000            -1.212436             0.059283
H             3.350000             0.952628             0.040880
C             4.900000            -1.212436             0.033176
C             3.500000            -3.637307             0.049084
C             4.900000            -3.637307             0.076572
C             5.600000            -2.424871             0.071255
H             5.450000            -0.259808             0.099286
C             7.000000            -2.424871             0.017890
C             5.600000            -4.849742             0.068844
C             7.000000            -4.849742             0.079127
C             7.700000            -3.637307             0.063054
H             7.550000            -1.472243             0.011759
C             9.100000            -3.637307             0.028496
C             7.700000            -6.062178             0.019475
B             9.100000            -6.062178             0.043223
C             9.800000            -4.849742             0.085951
H             9.650000            -2.684679             0.044693
C            11.200000            -4.849742             0.026177
N             9.800000            -7.274613             0.078575
C            11.200000            -7.274613             0.031176
C            11.900000            -6.062178             0.024136
H            11.750000            -3.897114             0.074193
C            13.300000            -6.062178             0.092827
C            11.900000            -8.487049             0.022404
C            13.300000            -8.487049             0.050434
C            14.000000            -7.274613             0.073638
H            13.850000            -5.109550             0.031591
H            13.850000            -9.439677             0.072828
H            15.100000            -7.274613             0.028245
C            -2.800000             0.000000             0.033772
C            -3.500000            -1.212436             0.028607
C            -2.800000            -2.424871             0.091915
C            -1.400000            -2.424871             0.044941
H            -3.350000             0.952628             0.040067
C            -0.700000            -3.637307             0.048573
C             0.700000            -3.637307             0.024005
C             1.400000            -4.849742             0.097344
C             2.800000            -4.849742             0.016245
C             3.500000            -6.062178             0.009618
C             4.900000            -6.062178             0.051027
C             5.600000            -7.274613             0.081832
C             7.000000            -7.274613             0.002666
C             7.700000            -8.487049             0.071627
C             9.100000            -8.487049             0.036200
C             9.800000            -9.699485             0.052317
C            11.200000            -9.699485             0.093156
H            11.750000           -10.652112             0.025544
C            -4.900000            -1.212436             0.091437
C            -5.600000            -2.424871             0.092919
C            -4.900000            -3.637307             0.045167
C            -3.500000            -3.637307             0.065396
H            -5.450000            -0.259808             0.059545
C            -2.800000            -4.849742             0.099008
C            -1.400000            -4.849742             0.063790
C            -0.700000            -6.062178             0.076246
C             0.700000            -6.062178             0.077555
C             1.400000            -7.274613             0.027839
C             2.800000            -7.274613             0.083566
C             3.500000            -8.487049             0.077482
C             4.900000            -8.487049             0.088975
C             5.600000            -9.699485             0.065021
C             7.000000            -9.699485             0.009274
C             7.700000           -10.911920             0.023496
C             9.100000           -10.911920             0.040055
H             9.650000           -11.864548             0.033277
C            -7.000000            -2.424871             0.058524
C            -7.700000            -3.637307             0.045892
C            -7.000000            -4.849742             0.012722
C            -5.600000            -4.849742             0.041523
H            -7.550000            -1.472243             0.085079
C            -4.900000            -6.062178             0.025608
C            -3.500000            -6.062178             0.069620
C            -2.800000            -7.274613             0.040114
C            -1.400000            -7.274613             0.080789
C            -0.700000            -8.487049             0.099971
C             0.700000            -8.487049             0.055878
C             1.400000            -9.699485             0.040568
C             2.800000            -9.699485             0.060020
C             3.500000           -10.911920             0.076523
C             4.900000           -10.911920             0.033008
C             5.600000           -12.124356             0.000092
C             7.000000           -12.124356             0.033209
H             7.550000           -13.076984             0.078044
C            -9.100000            -3.637307             0.054863
C            -9.800000            -4.849742             0.077305
C            -9.100000            -6.062178             0.076908
C            -7.700000            -6.062178             0.071660
H            -9.650000            -2.684679             0.012992
C            -7.000000            -7.274613             0.016517
C            -5.600000            -7.274613             0.038903
C            -4.900000            -8.487049             0.046106
C            -3.500000            -8.487049             0.037911
C            -2.800000            -9.699485             0.049959
C            -1.400000            -9.699485             0.097370
C            -0.700000           -10.911920             0.074966
C             0.700000           -10.911920             0.056142
C             1.400000           -12.124356             0.030511
C             2.800000           -12.124356             0.052215
C             3.500000           -13.336791             0.000724
C             4.900000           -13.336791             0.080480
H             5.450000           -14.289419             0.060627
C           -11.200000            -4.849742             0.076978
C           -11.900000            -6.062178             0.080833
C           -11.200000            -7.274613             0.052281
C            -9.800000            -7.274613             0.026524
H           -11.750000            -3.897114             0.060301
H           -13.000000            -6.062178             0.014646
H           -11.750000            -8.227241             0.055926
C            -9.100000            -8.487049             0.014701
C            -7.700000            -8.487049             0.067418
H            -9.650000            -9.439677             0.066198
C            -7.000000            -9.699485             0.048912
C            -5.600000            -9.699485             0.050480
H            -7.550000           -10.652112             0.067970
C            -4.900000           -10.911920             0.097810
C            -3.500000           -10.911920             0.035745
H            -5.450000           -11.864548             0.078411
C            -2.800000           -12.124356             0.042298
C            -1.400000           -12.124356             0.014305
H            -3.350000           -13.076984             0.028923
C            -0.700000           -13.336791             0.082008
C             0.700000           -13.336791             0.047867
H            -1.250000           -14.289419             0.033797
C             1.400000           -14.549227             0.081611
C             2.800000           -14.549227             0.082537
H             0.850000           -15.501855             0.087575
H             3.350000           -15.501855             0.092755
