138
isomero_41_42
C             0.700000             1.212436             0.052491
C            -0.700000             1.212436             0.016867
C            -1.400000             0.000000             0.090894
C            -0.700000            -1.212436             0.035491
C             0.700000            -1.212436             0.096233
C             1.400000            -0.000000             0.055872
H             1.250000             2.165064             0.090895
H            -1.250000             2.165064             0.081478
C             2.800000             0.000000             0.087764
C             1.400000            -2.424871             0.010826
C             2.800000            -2.424871             0.033913
C             3.500000            -1.212436             0.084610
H             3.350000             0.952628             0.087488
C             4.900000            -1.212436             0.099461
C             3.500000            -3.637307             0.034184
C             4.900000            -3.637307             0.024965
C             5.600000            -2.424871             0.059825
H             5.450000            -0.259808             0.019483
C             7.000000            -2.424871             0.091434
C             5.600000            -4.849742             0.068844
C             7.000000            -4.849742             0.065769
C             7.700000            -3.637307             0.027089
H             7.550000            -1.472243             0.020752
C             9.100000            -3.637307             0.067034
C             7.700000            -6.062178             0.054588
C             9.100000            -6.062178             0.097881
C             9.800000            -4.849742             0.018035
H             9.650000            -2.684679             0.069210
C            11.200000            -4.849742             0.096267
C             9.800000            -7.274613             0.028085
C            11.200000            -7.274613             0.097731
C            11.900000            -6.062178             0.003596
H            11.750000            -3.897114             0.083144
C            13.300000            -6.062178             0.059146
C            11.900000            -8.487049             0.018217
C            13.300000            -8.487049             0.048526
C            14.000000            -7.274613             0.066997
H            13.850000            -5.109550             0.021252
H            13.850000            -9.439677             0.058478
H            15.100000            -7.274613             0.060701
C            -2.800000             0.000000             0.075804
C            -3.500000            -1.212436             0.044107
C            -2.800000            -2.424871             0.082476
C            -1.400000            -2.424871             0.090561
H            -3.350000             0.952628             0.051476
C            -0.700000            -3.637307             0.099410
C             0.700000            -3.637307             0.039773
C             1.400000            -4.849742             0.065329
C             2.800000            -4.849742             0.065198
C             3.500000            -6.062178             0.090613
C             4.900000            -6.062178             0.013308
C             5.600000            -7.274613             0.049028
C             7.000000            -7.274613             0.071973
C             7.700000            -8.487049             0.014017
C             9.100000            -8.487049             0.073665
C             9.800000            -9.699485             0.003524
C            11.200000            -9.699485             0.072810
H            11.750000           -10.652112             0.068073
C            -4.900000            -1.212436             0.004742
C            -5.600000            -2.424871             0.077014
C            -4.900000            -3.637307             0.093633
C            -3.500000            -3.637307             0.082936
H            -5.450000            -0.259808             0.036895
C            -2.800000            -4.849742             0.082491
C            -1.400000            -4.849742             0.026795
C            -0.700000            -6.062178             0.019132
C             0.700000            -6.062178             0.049880
C             1.400000            -7.274613             0.088302
C             2.800000            -7.274613             0.092850
C             3.500000            -8.487049             0.060502
C             4.900000            -8.487049             0.075418
C             5.600000            -9.699485             0.017352
C             7.000000            -9.699485             0.040719
C             7.700000           -10.911920             0.008149
C             9.100000           -10.911920             0.096167
H             9.650000           -11.864548             0.006026
C            -7.000000            -2.424871             0.068620
C            -7.700000            -3.637307             0.012423
C            -7.000000            -4.849742             0.081508
C            -5.600000            -4.849742             0.089726
H            -7.550000            -1.472243             0.078195
C            -4.900000            -6.062178             0.010655
C            -3.500000            -6.062178             0.063982
C            -2.800000            -7.274613             0.004793
C            -1.400000            -7.274613             0.031246
C            -0.700000            -8.487049             0.070705
C             0.700000            -8.487049             0.012758
C             1.400000            -9.699485             0.040437
C             2.800000            -9.699485             0.035172
C             3.500000           -10.911920             0.056669
C             4.900000           -10.911920             0.089606
C             5.600000           -12.124356             0.080667
C             7.000000           -12.124356             0.023124
H             7.550000           -13.076984             0.055478
C            -9.100000            -3.637307             0.013562
B            -9.800000            -4.849742             0.098966
C            -9.100000            -6.062178             0.043125
C            -7.700000            -6.062178             0.077713
H            -9.650000            -2.684679             0.056906
C            -7.000000            -7.274613             0.028099
C            -5.600000            -7.274613             0.071008
C            -4.900000            -8.487049             0.034324
C            -3.500000            -8.487049             0.056409
C            -2.800000            -9.699485             0.095127
C            -1.400000            -9.699485             0.076812
C            -0.700000           -10.911920             0.021009
C             0.700000           -10.911920             0.086961
C             1.400000           -12.124356             0.071306
C             2.800000           -12.124356             0.019460
C             3.500000           -13.336791             0.061926
C             4.900000           -13.336791             0.058519
H             5.450000           -14.289419             0.002709
N           -11.200000            -4.849742             0.023698
C           -11.900000            -6.062178             0.027031
C           -11.200000            -7.274613             0.007388
C            -9.800000            -7.274613             0.070199
H           -11.750000            -3.897114             0.009630
H           -13.000000            -6.062178             0.019829
H           -11.750000            -8.227241             0.021321
C            -9.100000            -8.487049             0.061900
C            -7.700000            -8.487049             0.026745
H            -9.650000            -9.439677             0.087904
C            -7.000000            -9.699485             0.064248
C            -5.600000            -9.699485             0.067300
H            -7.550000           -10.652112             0.007637
C            -4.900000           -10.911920             0.015751
C            -3.500000           -10.911920             0.002901
H            -5.450000           -11.864548             0.096457
C            -2.800000           -12.124356             0.070853
C            -1.400000           -12.124356             0.029771
H            -3.350000           -13.076984             0.073259
C            -0.700000           -13.336791             0.011670
C             0.700000           -13.336791             0.005932
H            -1.250000           -14.289419             0.000648
C             1.400000           -14.549227             0.088940
C             2.800000           -14.549227             0.027972
H             0.850000           -15.501855             0.009825
H             3.350000           -15.501855             0.096137
