138
isomero_32_45
C             0.700000             1.212436             0.055884
C            -0.700000             1.212436             0.051926
C            -1.400000             0.000000             0.019333
C            -0.700000            -1.212436             0.084928
C             0.700000            -1.212436             0.027906
C             1.400000            -0.000000             0.060897
H             1.250000             2.165064             0.021741
H            -1.250000             2.165064             0.003321
C             2.800000             0.000000             0.016821
C             1.400000            -2.424871             0.077797
C             2.800000            -2.424871             0.081004
C             3.500000            -1.212436             0.056031
H             3.350000             0.952628             0.014012
C             4.900000            -1.212436             0.044370
C             3.500000            -3.637307             0.014327
C             4.900000            -3.637307             0.073744
C             5.600000            -2.424871             0.036597
H             5.450000            -0.259808             0.019980
C             7.000000            -2.424871             0.035652
C             5.600000            -4.849742             0.085908
C             7.000000            -4.849742             0.004637
C             7.700000            -3.637307             0.072251
H             7.550000            -1.472243             0.009279
C             9.100000            -3.637307             0.097582
C             7.700000            -6.062178             0.062531
N             9.100000            -6.062178             0.074807
B             9.800000            -4.849742             0.052413
H             9.650000            -2.684679             0.064218
C            11.200000            -4.849742             0.085747
C             9.800000            -7.274613             0.018166
C            11.200000            -7.274613             0.006673
C            11.900000            -6.062178             0.009008
H            11.750000            -3.897114             0.054521
C            13.300000            -6.062178             0.054438
C            11.900000            -8.487049             0.056681
C            13.300000            -8.487049             0.093499
C            14.000000            -7.274613             0.070651
H            13.850000            -5.109550             0.005647
H            13.850000            -9.439677             0.067452
H            15.100000            -7.274613             0.035605
C            -2.800000             0.000000             0.066271
C            -3.500000            -1.212436             0.018295
C            -2.800000            -2.424871             0.081119
C            -1.400000            -2.424871             0.073681
H            -3.350000             0.952628             0.054595
C            -0.700000            -3.637307             0.032065
C             0.700000            -3.637307             0.021518
C             1.400000            -4.849742             0.014262
C             2.800000            -4.849742             0.024622
C             3.500000            -6.062178             0.024346
C             4.900000            -6.062178             0.053063
C             5.600000            -7.274613             0.058001
C             7.000000            -7.274613             0.015653
C             7.700000            -8.487049             0.025301
C             9.100000            -8.487049             0.043600
C             9.800000            -9.699485             0.055623
C            11.200000            -9.699485             0.043616
H            11.750000           -10.652112             0.029101
C            -4.900000            -1.212436             0.056822
C            -5.600000            -2.424871             0.095646
C            -4.900000            -3.637307             0.039138
C            -3.500000            -3.637307             0.043973
H            -5.450000            -0.259808             0.011269
C            -2.800000            -4.849742             0.034444
C            -1.400000            -4.849742             0.073466
C            -0.700000            -6.062178             0.098547
C             0.700000            -6.062178             0.094798
C             1.400000            -7.274613             0.087052
C             2.800000            -7.274613             0.052209
C             3.500000            -8.487049             0.020878
C             4.900000            -8.487049             0.052108
C             5.600000            -9.699485             0.026637
C             7.000000            -9.699485             0.002405
C             7.700000           -10.911920             0.013950
C             9.100000           -10.911920             0.072120
H             9.650000           -11.864548             0.029254
C            -7.000000            -2.424871             0.091817
C            -7.700000            -3.637307             0.079317
C            -7.000000            -4.849742             0.014811
C            -5.600000            -4.849742             0.054387
H            -7.550000            -1.472243             0.014507
C            -4.900000            -6.062178             0.039507
C            -3.500000            -6.062178             0.010906
C            -2.800000            -7.274613             0.076481
C            -1.400000            -7.274613             0.065422
C            -0.700000            -8.487049             0.097671
C             0.700000            -8.487049             0.057448
C             1.400000            -9.699485             0.049586
C             2.800000            -9.699485             0.061365
C             3.500000           -10.911920             0.012787
C             4.900000           -10.911920             0.036635
C             5.600000           -12.124356             0.067528
C             7.000000           -12.124356             0.015206
H             7.550000           -13.076984             0.080869
C            -9.100000            -3.637307             0.092459
C            -9.800000            -4.849742             0.028693
C            -9.100000            -6.062178             0.048618
C            -7.700000            -6.062178             0.024662
H            -9.650000            -2.684679             0.036587
C            -7.000000            -7.274613             0.068490
C            -5.600000            -7.274613             0.089064
C            -4.900000            -8.487049             0.077689
C            -3.500000            -8.487049             0.043408
C            -2.800000            -9.699485             0.066200
C            -1.400000            -9.699485             0.057058
C            -0.700000           -10.911920             0.035095
C             0.700000           -10.911920             0.031979
C             1.400000           -12.124356             0.087513
C             2.800000           -12.124356             0.093548
C             3.500000           -13.336791             0.097115
C             4.900000           -13.336791             0.053174
H             5.450000           -14.289419             0.087819
C           -11.200000            -4.849742             0.024889
C           -11.900000            -6.062178             0.053083
C           -11.200000            -7.274613             0.093329
C            -9.800000            -7.274613             0.043794
H           -11.750000            -3.897114             0.001848
H           -13.000000            -6.062178             0.085686
H           -11.750000            -8.227241             0.048084
C            -9.100000            -8.487049             0.057415
C            -7.700000            -8.487049             0.037676
H            -9.650000            -9.439677             0.047310
C            -7.000000            -9.699485             0.009733
C            -5.600000            -9.699485             0.025322
H            -7.550000           -10.652112             0.077098
C            -4.900000           -10.911920             0.022789
C            -3.500000           -10.911920             0.037577
H            -5.450000           -11.864548             0.002400
C            -2.800000           -12.124356             0.025114
C            -1.400000           -12.124356             0.025368
H            -3.350000           -13.076984             0.071669
C            -0.700000           -13.336791             0.052296
C             0.700000           -13.336791             0.042323
H            -1.250000           -14.289419             0.048291
C             1.400000           -14.549227             0.008904
C             2.800000           -14.549227             0.001711
H             0.850000           -15.501855             0.028058
H             3.350000           -15.501855             0.039808
