138
isomero_20_29
C             0.700000             1.212436             0.073104
C            -0.700000             1.212436             0.062325
C            -1.400000             0.000000             0.046430
C            -0.700000            -1.212436             0.023863
C             0.700000            -1.212436             0.079864
C             1.400000            -0.000000             0.074992
H             1.250000             2.165064             0.059799
H            -1.250000             2.165064             0.066300
C             2.800000             0.000000             0.083603
C             1.400000            -2.424871             0.071066
C             2.800000            -2.424871             0.009963
C             3.500000            -1.212436             0.078629
H             3.350000             0.952628             0.039875
C             4.900000            -1.212436             0.078438
C             3.500000            -3.637307             0.051665
C             4.900000            -3.637307             0.062844
C             5.600000            -2.424871             0.037174
H             5.450000            -0.259808             0.004459
C             7.000000            -2.424871             0.075357
C             5.600000            -4.849742             0.072626
C             7.000000            -4.849742             0.092405
C             7.700000            -3.637307             0.008435
H             7.550000            -1.472243             0.099154
C             9.100000            -3.637307             0.086582
C             7.700000            -6.062178             0.037836
C             9.100000            -6.062178             0.044151
C             9.800000            -4.849742             0.083222
H             9.650000            -2.684679             0.019871
C            11.200000            -4.849742             0.056572
C             9.800000            -7.274613             0.096260
C            11.200000            -7.274613             0.063677
C            11.900000            -6.062178             0.013954
H            11.750000            -3.897114             0.032708
C            13.300000            -6.062178             0.008059
C            11.900000            -8.487049             0.008999
C            13.300000            -8.487049             0.020848
C            14.000000            -7.274613             0.056794
H            13.850000            -5.109550             0.097891
H            13.850000            -9.439677             0.002948
H            15.100000            -7.274613             0.090503
C            -2.800000             0.000000             0.012786
C            -3.500000            -1.212436             0.023588
C            -2.800000            -2.424871             0.071669
C            -1.400000            -2.424871             0.012527
H            -3.350000             0.952628             0.017687
C            -0.700000            -3.637307             0.093158
C             0.700000            -3.637307             0.063504
C             1.400000            -4.849742             0.070757
C             2.800000            -4.849742             0.029358
C             3.500000            -6.062178             0.077055
C             4.900000            -6.062178             0.082431
C             5.600000            -7.274613             0.059025
C             7.000000            -7.274613             0.088933
C             7.700000            -8.487049             0.084881
C             9.100000            -8.487049             0.031506
C             9.800000            -9.699485             0.097959
C            11.200000            -9.699485             0.008430
H            11.750000           -10.652112             0.063859
C            -4.900000            -1.212436             0.041960
C            -5.600000            -2.424871             0.096652
C            -4.900000            -3.637307             0.097431
C            -3.500000            -3.637307             0.044511
H            -5.450000            -0.259808             0.066805
C            -2.800000            -4.849742             0.047692
C            -1.400000            -4.849742             0.071903
C            -0.700000            -6.062178             0.055157
C             0.700000            -6.062178             0.093446
C             1.400000            -7.274613             0.036967
C             2.800000            -7.274613             0.082683
C             3.500000            -8.487049             0.050130
C             4.900000            -8.487049             0.017716
C             5.600000            -9.699485             0.067785
C             7.000000            -9.699485             0.060559
C             7.700000           -10.911920             0.072928
C             9.100000           -10.911920             0.056502
H             9.650000           -11.864548             0.049891
B            -7.000000            -2.424871             0.094055
N            -7.700000            -3.637307             0.077657
C            -7.000000            -4.849742             0.003630
C            -5.600000            -4.849742             0.086251
H            -7.550000            -1.472243             0.019012
C            -4.900000            -6.062178             0.036133
C            -3.500000            -6.062178             0.086098
C            -2.800000            -7.274613             0.077535
C            -1.400000            -7.274613             0.032773
C            -0.700000            -8.487049             0.036249
C             0.700000            -8.487049             0.009042
C             1.400000            -9.699485             0.098073
C             2.800000            -9.699485             0.005248
C             3.500000           -10.911920             0.050153
C             4.900000           -10.911920             0.028143
C             5.600000           -12.124356             0.021568
C             7.000000           -12.124356             0.042954
H             7.550000           -13.076984             0.029189
C            -9.100000            -3.637307             0.093588
C            -9.800000            -4.849742             0.013725
C            -9.100000            -6.062178             0.002465
C            -7.700000            -6.062178             0.025100
H            -9.650000            -2.684679             0.019040
C            -7.000000            -7.274613             0.026636
C            -5.600000            -7.274613             0.081815
C            -4.900000            -8.487049             0.020636
C            -3.500000            -8.487049             0.020523
C            -2.800000            -9.699485             0.037314
C            -1.400000            -9.699485             0.068025
C            -0.700000           -10.911920             0.072937
C             0.700000           -10.911920             0.068460
C             1.400000           -12.124356             0.028306
C             2.800000           -12.124356             0.084445
C             3.500000           -13.336791             0.025110
C             4.900000           -13.336791             0.067753
H             5.450000           -14.289419             0.097116
C           -11.200000            -4.849742             0.047647
C           -11.900000            -6.062178             0.043040
C           -11.200000            -7.274613             0.066056
C            -9.800000            -7.274613             0.000295
H           -11.750000            -3.897114             0.028897
H           -13.000000            -6.062178             0.021875
H           -11.750000            -8.227241             0.066863
C            -9.100000            -8.487049             0.020834
C            -7.700000            -8.487049             0.023873
H            -9.650000            -9.439677             0.097988
C            -7.000000            -9.699485             0.003435
C            -5.600000            -9.699485             0.013037
H            -7.550000           -10.652112             0.098529
C            -4.900000           -10.911920             0.007159
C            -3.500000           -10.911920             0.052788
H            -5.450000           -11.864548             0.082520
C            -2.800000           -12.124356             0.061708
C            -1.400000           -12.124356             0.068129
H            -3.350000           -13.076984             0.041289
C            -0.700000           -13.336791             0.051886
C             0.700000           -13.336791             0.097537
H            -1.250000           -14.289419             0.010615
C             1.400000           -14.549227             0.033509
C             2.800000           -14.549227             0.008414
H             0.850000           -15.501855             0.000175
H             3.350000           -15.501855             0.021647
