138
isomero_34_33
C             0.700000             1.212436             0.015411
C            -0.700000             1.212436             0.020684
C            -1.400000             0.000000             0.033702
C            -0.700000            -1.212436             0.084060
C             0.700000            -1.212436             0.077580
C             1.400000            -0.000000             0.092618
H             1.250000             2.165064             0.008136
H            -1.250000             2.165064             0.093018
C             2.800000             0.000000             0.046443
C             1.400000            -2.424871             0.099178
C             2.800000            -2.424871             0.052855
C             3.500000            -1.212436             0.084011
H             3.350000             0.952628             0.024524
C             4.900000            -1.212436             0.027684
C             3.500000            -3.637307             0.099809
C             4.900000            -3.637307             0.046497
C             5.600000            -2.424871             0.045592
H             5.450000            -0.259808             0.020149
C             7.000000            -2.424871             0.080182
B             5.600000            -4.849742             0.045230
N             7.000000            -4.849742             0.091572
C             7.700000            -3.637307             0.081789
H             7.550000            -1.472243             0.069050
C             9.100000            -3.637307             0.055397
C             7.700000            -6.062178             0.040044
C             9.100000            -6.062178             0.060106
C             9.800000            -4.849742             0.037243
H             9.650000            -2.684679             0.029909
C            11.200000            -4.849742             0.018266
C             9.800000            -7.274613             0.054803
C            11.200000            -7.274613             0.096217
C            11.900000            -6.062178             0.030829
H            11.750000            -3.897114             0.009618
C            13.300000            -6.062178             0.043261
C            11.900000            -8.487049             0.071580
C            13.300000            -8.487049             0.027374
C            14.000000            -7.274613             0.002778
H            13.850000            -5.109550             0.091654
H            13.850000            -9.439677             0.050010
H            15.100000            -7.274613             0.002810
C            -2.800000             0.000000             0.085476
C            -3.500000            -1.212436             0.093783
C            -2.800000            -2.424871             0.041649
C            -1.400000            -2.424871             0.087789
H            -3.350000             0.952628             0.053349
C            -0.700000            -3.637307             0.061100
C             0.700000            -3.637307             0.024715
C             1.400000            -4.849742             0.070171
C             2.800000            -4.849742             0.028556
C             3.500000            -6.062178             0.085359
C             4.900000            -6.062178             0.086535
C             5.600000            -7.274613             0.000537
C             7.000000            -7.274613             0.001432
C             7.700000            -8.487049             0.071383
C             9.100000            -8.487049             0.008527
C             9.800000            -9.699485             0.092682
C            11.200000            -9.699485             0.054168
H            11.750000           -10.652112             0.088324
C            -4.900000            -1.212436             0.010427
C            -5.600000            -2.424871             0.069568
C            -4.900000            -3.637307             0.085058
C            -3.500000            -3.637307             0.043553
H            -5.450000            -0.259808             0.026404
C            -2.800000            -4.849742             0.051265
C            -1.400000            -4.849742             0.042428
C            -0.700000            -6.062178             0.036404
C             0.700000            -6.062178             0.033858
C             1.400000            -7.274613             0.039826
C             2.800000            -7.274613             0.026051
C             3.500000            -8.487049             0.010986
C             4.900000            -8.487049             0.034522
C             5.600000            -9.699485             0.000560
C             7.000000            -9.699485             0.038110
C             7.700000           -10.911920             0.062264
C             9.100000           -10.911920             0.046865
H             9.650000           -11.864548             0.073177
C            -7.000000            -2.424871             0.032812
C            -7.700000            -3.637307             0.071873
C            -7.000000            -4.849742             0.047379
C            -5.600000            -4.849742             0.010486
H            -7.550000            -1.472243             0.023705
C            -4.900000            -6.062178             0.001431
C            -3.500000            -6.062178             0.048478
C            -2.800000            -7.274613             0.003641
C            -1.400000            -7.274613             0.082634
C            -0.700000            -8.487049             0.087986
C             0.700000            -8.487049             0.017877
C             1.400000            -9.699485             0.047236
C             2.800000            -9.699485             0.064973
C             3.500000           -10.911920             0.016647
C             4.900000           -10.911920             0.064802
C             5.600000           -12.124356             0.083038
C             7.000000           -12.124356             0.024833
H             7.550000           -13.076984             0.006972
C            -9.100000            -3.637307             0.009975
C            -9.800000            -4.849742             0.004876
C            -9.100000            -6.062178             0.056177
C            -7.700000            -6.062178             0.048366
H            -9.650000            -2.684679             0.059946
C            -7.000000            -7.274613             0.096741
C            -5.600000            -7.274613             0.003416
C            -4.900000            -8.487049             0.038864
C            -3.500000            -8.487049             0.001032
C            -2.800000            -9.699485             0.068848
C            -1.400000            -9.699485             0.093880
C            -0.700000           -10.911920             0.046776
C             0.700000           -10.911920             0.026833
C             1.400000           -12.124356             0.021297
C             2.800000           -12.124356             0.001315
C             3.500000           -13.336791             0.072743
C             4.900000           -13.336791             0.008801
H             5.450000           -14.289419             0.004129
C           -11.200000            -4.849742             0.072128
C           -11.900000            -6.062178             0.078687
C           -11.200000            -7.274613             0.067623
C            -9.800000            -7.274613             0.043205
H           -11.750000            -3.897114             0.089747
H           -13.000000            -6.062178             0.092567
H           -11.750000            -8.227241             0.018654
C            -9.100000            -8.487049             0.003483
C            -7.700000            -8.487049             0.007261
H            -9.650000            -9.439677             0.019187
C            -7.000000            -9.699485             0.022283
C            -5.600000            -9.699485             0.034152
H            -7.550000           -10.652112             0.031124
C            -4.900000           -10.911920             0.095734
C            -3.500000           -10.911920             0.006907
H            -5.450000           -11.864548             0.020632
C            -2.800000           -12.124356             0.032561
C            -1.400000           -12.124356             0.098855
H            -3.350000           -13.076984             0.059408
C            -0.700000           -13.336791             0.063976
C             0.700000           -13.336791             0.014715
H            -1.250000           -14.289419             0.074560
C             1.400000           -14.549227             0.082660
C             2.800000           -14.549227             0.018915
H             0.850000           -15.501855             0.092653
H             3.350000           -15.501855             0.029522
