138
isomero_25_16
C             0.700000             1.212436             0.087876
C            -0.700000             1.212436             0.049291
C            -1.400000             0.000000             0.013876
C            -0.700000            -1.212436             0.002260
C             0.700000            -1.212436             0.041754
C             1.400000            -0.000000             0.051718
H             1.250000             2.165064             0.036603
H            -1.250000             2.165064             0.071858
C             2.800000             0.000000             0.006446
N             1.400000            -2.424871             0.067123
C             2.800000            -2.424871             0.053441
C             3.500000            -1.212436             0.043792
H             3.350000             0.952628             0.050283
C             4.900000            -1.212436             0.017774
C             3.500000            -3.637307             0.002550
C             4.900000            -3.637307             0.045690
C             5.600000            -2.424871             0.018416
H             5.450000            -0.259808             0.058845
C             7.000000            -2.424871             0.077734
C             5.600000            -4.849742             0.028539
C             7.000000            -4.849742             0.084291
C             7.700000            -3.637307             0.057971
H             7.550000            -1.472243             0.028636
C             9.100000            -3.637307             0.060584
C             7.700000            -6.062178             0.056955
C             9.100000            -6.062178             0.004534
C             9.800000            -4.849742             0.047575
H             9.650000            -2.684679             0.016440
C            11.200000            -4.849742             0.087387
C             9.800000            -7.274613             0.097640
C            11.200000            -7.274613             0.010305
C            11.900000            -6.062178             0.043571
H            11.750000            -3.897114             0.049297
C            13.300000            -6.062178             0.052253
C            11.900000            -8.487049             0.048541
C            13.300000            -8.487049             0.037796
C            14.000000            -7.274613             0.038555
H            13.850000            -5.109550             0.099918
H            13.850000            -9.439677             0.003810
H            15.100000            -7.274613             0.051821
C            -2.800000             0.000000             0.093627
C            -3.500000            -1.212436             0.077207
C            -2.800000            -2.424871             0.014401
C            -1.400000            -2.424871             0.024540
H            -3.350000             0.952628             0.014228
C            -0.700000            -3.637307             0.079002
B             0.700000            -3.637307             0.025598
C             1.400000            -4.849742             0.038078
C             2.800000            -4.849742             0.018533
C             3.500000            -6.062178             0.017516
C             4.900000            -6.062178             0.076093
C             5.600000            -7.274613             0.052247
C             7.000000            -7.274613             0.024720
C             7.700000            -8.487049             0.039641
C             9.100000            -8.487049             0.025957
C             9.800000            -9.699485             0.015276
C            11.200000            -9.699485             0.006243
H            11.750000           -10.652112             0.049902
C            -4.900000            -1.212436             0.028735
C            -5.600000            -2.424871             0.025170
C            -4.900000            -3.637307             0.034462
C            -3.500000            -3.637307             0.095242
H            -5.450000            -0.259808             0.042977
C            -2.800000            -4.849742             0.016103
C            -1.400000            -4.849742             0.071029
C            -0.700000            -6.062178             0.001772
C             0.700000            -6.062178             0.006009
C             1.400000            -7.274613             0.086550
C             2.800000            -7.274613             0.019822
C             3.500000            -8.487049             0.022466
C             4.900000            -8.487049             0.011423
C             5.600000            -9.699485             0.081485
C             7.000000            -9.699485             0.098020
C             7.700000           -10.911920             0.021829
C             9.100000           -10.911920             0.089808
H             9.650000           -11.864548             0.017269
C            -7.000000            -2.424871             0.082005
C            -7.700000            -3.637307             0.025822
C            -7.000000            -4.849742             0.072650
C            -5.600000            -4.849742             0.013364
H            -7.550000            -1.472243             0.042627
C            -4.900000            -6.062178             0.051391
C            -3.500000            -6.062178             0.017843
C            -2.800000            -7.274613             0.013055
C            -1.400000            -7.274613             0.049278
C            -0.700000            -8.487049             0.048897
C             0.700000            -8.487049             0.069120
C             1.400000            -9.699485             0.092286
C             2.800000            -9.699485             0.033942
C             3.500000           -10.911920             0.048447
C             4.900000           -10.911920             0.084950
C             5.600000           -12.124356             0.030780
C             7.000000           -12.124356             0.091992
H             7.550000           -13.076984             0.077208
C            -9.100000            -3.637307             0.002721
C            -9.800000            -4.849742             0.019919
C            -9.100000            -6.062178             0.081297
C            -7.700000            -6.062178             0.013954
H            -9.650000            -2.684679             0.007296
C            -7.000000            -7.274613             0.011321
C            -5.600000            -7.274613             0.099306
C            -4.900000            -8.487049             0.074989
C            -3.500000            -8.487049             0.055212
C            -2.800000            -9.699485             0.027143
C            -1.400000            -9.699485             0.010402
C            -0.700000           -10.911920             0.077762
C             0.700000           -10.911920             0.064628
C             1.400000           -12.124356             0.050578
C             2.800000           -12.124356             0.086958
C             3.500000           -13.336791             0.064300
C             4.900000           -13.336791             0.043634
H             5.450000           -14.289419             0.062519
C           -11.200000            -4.849742             0.031681
C           -11.900000            -6.062178             0.002788
C           -11.200000            -7.274613             0.037708
C            -9.800000            -7.274613             0.060186
H           -11.750000            -3.897114             0.039195
H           -13.000000            -6.062178             0.015961
H           -11.750000            -8.227241             0.008466
C            -9.100000            -8.487049             0.000980
C            -7.700000            -8.487049             0.069930
H            -9.650000            -9.439677             0.077232
C            -7.000000            -9.699485             0.038239
C            -5.600000            -9.699485             0.042330
H            -7.550000           -10.652112             0.064665
C            -4.900000           -10.911920             0.096554
C            -3.500000           -10.911920             0.071236
H            -5.450000           -11.864548             0.031745
C            -2.800000           -12.124356             0.077790
C            -1.400000           -12.124356             0.072834
H            -3.350000           -13.076984             0.034362
C            -0.700000           -13.336791             0.018259
C             0.700000           -13.336791             0.051629
H            -1.250000           -14.289419             0.085991
C             1.400000           -14.549227             0.072578
C             2.800000           -14.549227             0.093698
H             0.850000           -15.501855             0.079817
H             3.350000           -15.501855             0.068364
