138
isomero_50_63
C             0.700000             1.212436             0.088929
C            -0.700000             1.212436             0.096022
C            -1.400000             0.000000             0.076252
C            -0.700000            -1.212436             0.098421
C             0.700000            -1.212436             0.081475
C             1.400000            -0.000000             0.098961
H             1.250000             2.165064             0.042124
H            -1.250000             2.165064             0.049873
C             2.800000             0.000000             0.090731
C             1.400000            -2.424871             0.023115
C             2.800000            -2.424871             0.094850
C             3.500000            -1.212436             0.017824
H             3.350000             0.952628             0.053461
C             4.900000            -1.212436             0.095725
C             3.500000            -3.637307             0.099016
C             4.900000            -3.637307             0.000723
C             5.600000            -2.424871             0.015457
H             5.450000            -0.259808             0.083079
C             7.000000            -2.424871             0.046635
C             5.600000            -4.849742             0.041929
C             7.000000            -4.849742             0.081529
C             7.700000            -3.637307             0.007458
H             7.550000            -1.472243             0.007245
C             9.100000            -3.637307             0.088345
C             7.700000            -6.062178             0.069187
C             9.100000            -6.062178             0.017543
C             9.800000            -4.849742             0.048637
H             9.650000            -2.684679             0.076591
C            11.200000            -4.849742             0.053134
C             9.800000            -7.274613             0.015308
C            11.200000            -7.274613             0.083210
C            11.900000            -6.062178             0.018322
H            11.750000            -3.897114             0.053259
C            13.300000            -6.062178             0.014634
C            11.900000            -8.487049             0.071706
C            13.300000            -8.487049             0.077537
C            14.000000            -7.274613             0.033058
H            13.850000            -5.109550             0.019961
H            13.850000            -9.439677             0.062245
H            15.100000            -7.274613             0.001229
C            -2.800000             0.000000             0.009403
C            -3.500000            -1.212436             0.077203
C            -2.800000            -2.424871             0.038397
C            -1.400000            -2.424871             0.089696
H            -3.350000             0.952628             0.073879
C            -0.700000            -3.637307             0.058514
C             0.700000            -3.637307             0.043391
C             1.400000            -4.849742             0.073515
C             2.800000            -4.849742             0.013701
C             3.500000            -6.062178             0.035995
C             4.900000            -6.062178             0.017966
C             5.600000            -7.274613             0.074007
C             7.000000            -7.274613             0.017072
C             7.700000            -8.487049             0.099165
C             9.100000            -8.487049             0.018755
C             9.800000            -9.699485             0.057605
C            11.200000            -9.699485             0.056892
H            11.750000           -10.652112             0.037265
C            -4.900000            -1.212436             0.014452
C            -5.600000            -2.424871             0.035491
C            -4.900000            -3.637307             0.065761
C            -3.500000            -3.637307             0.044138
H            -5.450000            -0.259808             0.000484
C            -2.800000            -4.849742             0.028686
C            -1.400000            -4.849742             0.025416
B            -0.700000            -6.062178             0.043046
C             0.700000            -6.062178             0.005961
C             1.400000            -7.274613             0.091413
C             2.800000            -7.274613             0.062842
C             3.500000            -8.487049             0.056126
C             4.900000            -8.487049             0.036963
C             5.600000            -9.699485             0.015830
C             7.000000            -9.699485             0.054535
C             7.700000           -10.911920             0.021272
C             9.100000           -10.911920             0.026925
H             9.650000           -11.864548             0.031592
C            -7.000000            -2.424871             0.078363
C            -7.700000            -3.637307             0.003018
C            -7.000000            -4.849742             0.044878
C            -5.600000            -4.849742             0.005696
H            -7.550000            -1.472243             0.050793
C            -4.900000            -6.062178             0.085317
C            -3.500000            -6.062178             0.093078
C            -2.800000            -7.274613             0.007212
N            -1.400000            -7.274613             0.083202
C            -0.700000            -8.487049             0.097201
C             0.700000            -8.487049             0.014026
C             1.400000            -9.699485             0.040937
C             2.800000            -9.699485             0.034354
C             3.500000           -10.911920             0.094959
C             4.900000           -10.911920             0.028978
C             5.600000           -12.124356             0.017068
C             7.000000           -12.124356             0.061036
H             7.550000           -13.076984             0.080272
C            -9.100000            -3.637307             0.083116
C            -9.800000            -4.849742             0.066190
C            -9.100000            -6.062178             0.010647
C            -7.700000            -6.062178             0.026450
H            -9.650000            -2.684679             0.026105
C            -7.000000            -7.274613             0.049647
C            -5.600000            -7.274613             0.010416
C            -4.900000            -8.487049             0.077145
C            -3.500000            -8.487049             0.060402
C            -2.800000            -9.699485             0.012179
C            -1.400000            -9.699485             0.046184
C            -0.700000           -10.911920             0.024461
C             0.700000           -10.911920             0.007186
C             1.400000           -12.124356             0.059096
C             2.800000           -12.124356             0.031902
C             3.500000           -13.336791             0.021949
C             4.900000           -13.336791             0.038823
H             5.450000           -14.289419             0.055471
C           -11.200000            -4.849742             0.018588
C           -11.900000            -6.062178             0.070503
C           -11.200000            -7.274613             0.094352
C            -9.800000            -7.274613             0.073923
H           -11.750000            -3.897114             0.069508
H           -13.000000            -6.062178             0.059578
H           -11.750000            -8.227241             0.009699
C            -9.100000            -8.487049             0.054854
C            -7.700000            -8.487049             0.023440
H            -9.650000            -9.439677             0.057531
C            -7.000000            -9.699485             0.047611
C            -5.600000            -9.699485             0.010054
H            -7.550000           -10.652112             0.003087
C            -4.900000           -10.911920             0.015892
C            -3.500000           -10.911920             0.028893
H            -5.450000           -11.864548             0.070340
C            -2.800000           -12.124356             0.015251
C            -1.400000           -12.124356             0.086826
H            -3.350000           -13.076984             0.024852
C            -0.700000           -13.336791             0.032669
C             0.700000           -13.336791             0.067638
H            -1.250000           -14.289419             0.095476
C             1.400000           -14.549227             0.055506
C             2.800000           -14.549227             0.094772
H             0.850000           -15.501855             0.029108
H             3.350000           -15.501855             0.017710
