138
isomero_12_11
C             0.700000             1.212436             0.031351
C            -0.700000             1.212436             0.026139
C            -1.400000             0.000000             0.044021
C            -0.700000            -1.212436             0.026314
C             0.700000            -1.212436             0.039166
C             1.400000            -0.000000             0.041842
H             1.250000             2.165064             0.005090
H            -1.250000             2.165064             0.046395
C             2.800000             0.000000             0.025434
C             1.400000            -2.424871             0.053215
C             2.800000            -2.424871             0.031257
C             3.500000            -1.212436             0.013200
H             3.350000             0.952628             0.030300
C             4.900000            -1.212436             0.010843
C             3.500000            -3.637307             0.065335
C             4.900000            -3.637307             0.028488
C             5.600000            -2.424871             0.097315
H             5.450000            -0.259808             0.011838
C             7.000000            -2.424871             0.039389
C             5.600000            -4.849742             0.097963
C             7.000000            -4.849742             0.055938
C             7.700000            -3.637307             0.077631
H             7.550000            -1.472243             0.076272
C             9.100000            -3.637307             0.065615
C             7.700000            -6.062178             0.028029
C             9.100000            -6.062178             0.011981
C             9.800000            -4.849742             0.013313
H             9.650000            -2.684679             0.030554
C            11.200000            -4.849742             0.011472
C             9.800000            -7.274613             0.007720
C            11.200000            -7.274613             0.065936
C            11.900000            -6.062178             0.037499
H            11.750000            -3.897114             0.026615
C            13.300000            -6.062178             0.000409
C            11.900000            -8.487049             0.001205
C            13.300000            -8.487049             0.099151
C            14.000000            -7.274613             0.025402
H            13.850000            -5.109550             0.055984
H            13.850000            -9.439677             0.008809
H            15.100000            -7.274613             0.091899
C            -2.800000             0.000000             0.088937
N            -3.500000            -1.212436             0.044335
C            -2.800000            -2.424871             0.087868
C            -1.400000            -2.424871             0.058489
H            -3.350000             0.952628             0.014480
C            -0.700000            -3.637307             0.042534
C             0.700000            -3.637307             0.058452
C             1.400000            -4.849742             0.008372
C             2.800000            -4.849742             0.028603
C             3.500000            -6.062178             0.004597
C             4.900000            -6.062178             0.023938
C             5.600000            -7.274613             0.014262
C             7.000000            -7.274613             0.040201
C             7.700000            -8.487049             0.099946
C             9.100000            -8.487049             0.036325
C             9.800000            -9.699485             0.015471
C            11.200000            -9.699485             0.080382
H            11.750000           -10.652112             0.096803
B            -4.900000            -1.212436             0.016302
C            -5.600000            -2.424871             0.094215
C            -4.900000            -3.637307             0.017734
C            -3.500000            -3.637307             0.003092
H            -5.450000            -0.259808             0.011399
C            -2.800000            -4.849742             0.062328
C            -1.400000            -4.849742             0.009207
C            -0.700000            -6.062178             0.072197
C             0.700000            -6.062178             0.090438
C             1.400000            -7.274613             0.092009
C             2.800000            -7.274613             0.069337
C             3.500000            -8.487049             0.046459
C             4.900000            -8.487049             0.084506
C             5.600000            -9.699485             0.047403
C             7.000000            -9.699485             0.073492
C             7.700000           -10.911920             0.098543
C             9.100000           -10.911920             0.037707
H             9.650000           -11.864548             0.091323
C            -7.000000            -2.424871             0.062074
C            -7.700000            -3.637307             0.083821
C            -7.000000            -4.849742             0.041823
C            -5.600000            -4.849742             0.001329
H            -7.550000            -1.472243             0.002573
C            -4.900000            -6.062178             0.056674
C            -3.500000            -6.062178             0.041403
C            -2.800000            -7.274613             0.085578
C            -1.400000            -7.274613             0.050986
C            -0.700000            -8.487049             0.096617
C             0.700000            -8.487049             0.072159
C             1.400000            -9.699485             0.064379
C             2.800000            -9.699485             0.054624
C             3.500000           -10.911920             0.006025
C             4.900000           -10.911920             0.011961
C             5.600000           -12.124356             0.008993
C             7.000000           -12.124356             0.036944
H             7.550000           -13.076984             0.019081
C            -9.100000            -3.637307             0.020624
C            -9.800000            -4.849742             0.069936
C            -9.100000            -6.062178             0.006339
C            -7.700000            -6.062178             0.049652
H            -9.650000            -2.684679             0.019492
C            -7.000000            -7.274613             0.044394
C            -5.600000            -7.274613             0.045214
C            -4.900000            -8.487049             0.011421
C            -3.500000            -8.487049             0.039531
C            -2.800000            -9.699485             0.030728
C            -1.400000            -9.699485             0.056452
C            -0.700000           -10.911920             0.079347
C             0.700000           -10.911920             0.017095
C             1.400000           -12.124356             0.026614
C             2.800000           -12.124356             0.022761
C             3.500000           -13.336791             0.067046
C             4.900000           -13.336791             0.004868
H             5.450000           -14.289419             0.004070
C           -11.200000            -4.849742             0.048573
C           -11.900000            -6.062178             0.019343
C           -11.200000            -7.274613             0.085528
C            -9.800000            -7.274613             0.003435
H           -11.750000            -3.897114             0.021923
H           -13.000000            -6.062178             0.096014
H           -11.750000            -8.227241             0.078309
C            -9.100000            -8.487049             0.062500
C            -7.700000            -8.487049             0.070886
H            -9.650000            -9.439677             0.099242
C            -7.000000            -9.699485             0.045912
C            -5.600000            -9.699485             0.031226
H            -7.550000           -10.652112             0.091289
C            -4.900000           -10.911920             0.092766
C            -3.500000           -10.911920             0.055446
H            -5.450000           -11.864548             0.059401
C            -2.800000           -12.124356             0.085505
C            -1.400000           -12.124356             0.088845
H            -3.350000           -13.076984             0.008879
C            -0.700000           -13.336791             0.072716
C             0.700000           -13.336791             0.087527
H            -1.250000           -14.289419             0.077311
C             1.400000           -14.549227             0.038970
C             2.800000           -14.549227             0.083963
H             0.850000           -15.501855             0.075681
H             3.350000           -15.501855             0.085829
