138
isomero_17_18
C             0.700000             1.212436             0.075125
C            -0.700000             1.212436             0.074438
C            -1.400000             0.000000             0.075734
C            -0.700000            -1.212436             0.036859
C             0.700000            -1.212436             0.074249
C             1.400000            -0.000000             0.015233
H             1.250000             2.165064             0.075067
H            -1.250000             2.165064             0.078955
C             2.800000             0.000000             0.034626
C             1.400000            -2.424871             0.020338
C             2.800000            -2.424871             0.005668
C             3.500000            -1.212436             0.021437
H             3.350000             0.952628             0.050688
C             4.900000            -1.212436             0.043488
C             3.500000            -3.637307             0.001462
C             4.900000            -3.637307             0.067569
C             5.600000            -2.424871             0.092440
H             5.450000            -0.259808             0.050896
C             7.000000            -2.424871             0.056574
C             5.600000            -4.849742             0.051836
C             7.000000            -4.849742             0.078423
C             7.700000            -3.637307             0.028002
H             7.550000            -1.472243             0.028508
C             9.100000            -3.637307             0.055360
C             7.700000            -6.062178             0.069698
C             9.100000            -6.062178             0.022938
C             9.800000            -4.849742             0.065629
H             9.650000            -2.684679             0.087728
C            11.200000            -4.849742             0.092227
C             9.800000            -7.274613             0.098086
C            11.200000            -7.274613             0.070051
C            11.900000            -6.062178             0.055645
H            11.750000            -3.897114             0.093635
C            13.300000            -6.062178             0.091747
C            11.900000            -8.487049             0.013917
C            13.300000            -8.487049             0.005609
C            14.000000            -7.274613             0.084239
H            13.850000            -5.109550             0.034900
H            13.850000            -9.439677             0.027920
H            15.100000            -7.274613             0.068424
C            -2.800000             0.000000             0.059372
C            -3.500000            -1.212436             0.003722
N            -2.800000            -2.424871             0.031631
B            -1.400000            -2.424871             0.056479
H            -3.350000             0.952628             0.040992
C            -0.700000            -3.637307             0.025198
C             0.700000            -3.637307             0.048491
C             1.400000            -4.849742             0.057373
C             2.800000            -4.849742             0.027069
C             3.500000            -6.062178             0.061786
C             4.900000            -6.062178             0.026272
C             5.600000            -7.274613             0.041436
C             7.000000            -7.274613             0.000447
C             7.700000            -8.487049             0.041990
C             9.100000            -8.487049             0.058322
C             9.800000            -9.699485             0.045697
C            11.200000            -9.699485             0.035452
H            11.750000           -10.652112             0.082898
C            -4.900000            -1.212436             0.020877
C            -5.600000            -2.424871             0.067889
C            -4.900000            -3.637307             0.046459
C            -3.500000            -3.637307             0.021824
H            -5.450000            -0.259808             0.060446
C            -2.800000            -4.849742             0.070485
C            -1.400000            -4.849742             0.057101
C            -0.700000            -6.062178             0.044001
C             0.700000            -6.062178             0.042116
C             1.400000            -7.274613             0.024022
C             2.800000            -7.274613             0.076585
C             3.500000            -8.487049             0.089172
C             4.900000            -8.487049             0.044904
C             5.600000            -9.699485             0.079590
C             7.000000            -9.699485             0.007373
C             7.700000           -10.911920             0.049993
C             9.100000           -10.911920             0.019801
H             9.650000           -11.864548             0.004018
C            -7.000000            -2.424871             0.025490
C            -7.700000            -3.637307             0.074935
C            -7.000000            -4.849742             0.002841
C            -5.600000            -4.849742             0.054793
H            -7.550000            -1.472243             0.020088
C            -4.900000            -6.062178             0.052126
C            -3.500000            -6.062178             0.083932
C            -2.800000            -7.274613             0.068732
C            -1.400000            -7.274613             0.036505
C            -0.700000            -8.487049             0.073545
C             0.700000            -8.487049             0.053803
C             1.400000            -9.699485             0.076172
C             2.800000            -9.699485             0.055228
C             3.500000           -10.911920             0.073638
C             4.900000           -10.911920             0.025072
C             5.600000           -12.124356             0.005688
C             7.000000           -12.124356             0.049834
H             7.550000           -13.076984             0.029332
C            -9.100000            -3.637307             0.067315
C            -9.800000            -4.849742             0.056991
C            -9.100000            -6.062178             0.082273
C            -7.700000            -6.062178             0.096515
H            -9.650000            -2.684679             0.003723
C            -7.000000            -7.274613             0.099701
C            -5.600000            -7.274613             0.061674
C            -4.900000            -8.487049             0.025573
C            -3.500000            -8.487049             0.046612
C            -2.800000            -9.699485             0.091881
C            -1.400000            -9.699485             0.057807
C            -0.700000           -10.911920             0.084704
C             0.700000           -10.911920             0.038009
C             1.400000           -12.124356             0.051343
C             2.800000           -12.124356             0.095232
C             3.500000           -13.336791             0.019508
C             4.900000           -13.336791             0.026697
H             5.450000           -14.289419             0.089873
C           -11.200000            -4.849742             0.074237
C           -11.900000            -6.062178             0.095590
C           -11.200000            -7.274613             0.002604
C            -9.800000            -7.274613             0.081420
H           -11.750000            -3.897114             0.065158
H           -13.000000            -6.062178             0.065459
H           -11.750000            -8.227241             0.058257
C            -9.100000            -8.487049             0.076242
C            -7.700000            -8.487049             0.033173
H            -9.650000            -9.439677             0.026207
C            -7.000000            -9.699485             0.035858
C            -5.600000            -9.699485             0.033825
H            -7.550000           -10.652112             0.033464
C            -4.900000           -10.911920             0.064960
C            -3.500000           -10.911920             0.059225
H            -5.450000           -11.864548             0.086494
C            -2.800000           -12.124356             0.024155
C            -1.400000           -12.124356             0.095202
H            -3.350000           -13.076984             0.018133
C            -0.700000           -13.336791             0.046580
C             0.700000           -13.336791             0.041273
H            -1.250000           -14.289419             0.045095
C             1.400000           -14.549227             0.073375
C             2.800000           -14.549227             0.071210
H             0.850000           -15.501855             0.083534
H             3.350000           -15.501855             0.021178
