138
isomero_18_17
C             0.700000             1.212436             0.026894
C            -0.700000             1.212436             0.052231
C            -1.400000             0.000000             0.003309
C            -0.700000            -1.212436             0.068074
C             0.700000            -1.212436             0.029243
C             1.400000            -0.000000             0.068634
H             1.250000             2.165064             0.031426
H            -1.250000             2.165064             0.056742
C             2.800000             0.000000             0.020649
C             1.400000            -2.424871             0.001238
C             2.800000            -2.424871             0.017073
C             3.500000            -1.212436             0.096277
H             3.350000             0.952628             0.040026
C             4.900000            -1.212436             0.058745
C             3.500000            -3.637307             0.093314
C             4.900000            -3.637307             0.007872
C             5.600000            -2.424871             0.057715
H             5.450000            -0.259808             0.074967
C             7.000000            -2.424871             0.066402
C             5.600000            -4.849742             0.061249
C             7.000000            -4.849742             0.091263
C             7.700000            -3.637307             0.065846
H             7.550000            -1.472243             0.067046
C             9.100000            -3.637307             0.022047
C             7.700000            -6.062178             0.055717
C             9.100000            -6.062178             0.003624
C             9.800000            -4.849742             0.017853
H             9.650000            -2.684679             0.034596
C            11.200000            -4.849742             0.026938
C             9.800000            -7.274613             0.030637
C            11.200000            -7.274613             0.052236
C            11.900000            -6.062178             0.088704
H            11.750000            -3.897114             0.047248
C            13.300000            -6.062178             0.011625
C            11.900000            -8.487049             0.075808
C            13.300000            -8.487049             0.087169
C            14.000000            -7.274613             0.018776
H            13.850000            -5.109550             0.089938
H            13.850000            -9.439677             0.079168
H            15.100000            -7.274613             0.044908
C            -2.800000             0.000000             0.029322
C            -3.500000            -1.212436             0.078870
B            -2.800000            -2.424871             0.064784
N            -1.400000            -2.424871             0.024234
H            -3.350000             0.952628             0.044827
C            -0.700000            -3.637307             0.047217
C             0.700000            -3.637307             0.067155
C             1.400000            -4.849742             0.062481
C             2.800000            -4.849742             0.003612
C             3.500000            -6.062178             0.079921
C             4.900000            -6.062178             0.053484
C             5.600000            -7.274613             0.068352
C             7.000000            -7.274613             0.045995
C             7.700000            -8.487049             0.080206
C             9.100000            -8.487049             0.062807
C             9.800000            -9.699485             0.088144
C            11.200000            -9.699485             0.019811
H            11.750000           -10.652112             0.063233
C            -4.900000            -1.212436             0.067776
C            -5.600000            -2.424871             0.024215
C            -4.900000            -3.637307             0.040098
C            -3.500000            -3.637307             0.016244
H            -5.450000            -0.259808             0.075645
C            -2.800000            -4.849742             0.007348
C            -1.400000            -4.849742             0.054681
C            -0.700000            -6.062178             0.083878
C             0.700000            -6.062178             0.079643
C             1.400000            -7.274613             0.072767
C             2.800000            -7.274613             0.090929
C             3.500000            -8.487049             0.012026
C             4.900000            -8.487049             0.005367
C             5.600000            -9.699485             0.058009
C             7.000000            -9.699485             0.085690
C             7.700000           -10.911920             0.007908
C             9.100000           -10.911920             0.004520
H             9.650000           -11.864548             0.079408
C            -7.000000            -2.424871             0.068197
C            -7.700000            -3.637307             0.086455
C            -7.000000            -4.849742             0.097165
C            -5.600000            -4.849742             0.000122
H            -7.550000            -1.472243             0.005753
C            -4.900000            -6.062178             0.086413
C            -3.500000            -6.062178             0.027479
C            -2.800000            -7.274613             0.014437
C            -1.400000            -7.274613             0.000582
C            -0.700000            -8.487049             0.042148
C             0.700000            -8.487049             0.073392
C             1.400000            -9.699485             0.060305
C             2.800000            -9.699485             0.014700
C             3.500000           -10.911920             0.012865
C             4.900000           -10.911920             0.068211
C             5.600000           -12.124356             0.024093
C             7.000000           -12.124356             0.033834
H             7.550000           -13.076984             0.054107
C            -9.100000            -3.637307             0.081605
C            -9.800000            -4.849742             0.057947
C            -9.100000            -6.062178             0.077815
C            -7.700000            -6.062178             0.072267
H            -9.650000            -2.684679             0.007574
C            -7.000000            -7.274613             0.043026
C            -5.600000            -7.274613             0.003803
C            -4.900000            -8.487049             0.092547
C            -3.500000            -8.487049             0.035010
C            -2.800000            -9.699485             0.050452
C            -1.400000            -9.699485             0.069374
C            -0.700000           -10.911920             0.044577
C             0.700000           -10.911920             0.067738
C             1.400000           -12.124356             0.052392
C             2.800000           -12.124356             0.077396
C             3.500000           -13.336791             0.034120
C             4.900000           -13.336791             0.060971
H             5.450000           -14.289419             0.097289
C           -11.200000            -4.849742             0.054423
C           -11.900000            -6.062178             0.063313
C           -11.200000            -7.274613             0.023176
C            -9.800000            -7.274613             0.051929
H           -11.750000            -3.897114             0.083871
H           -13.000000            -6.062178             0.032911
H           -11.750000            -8.227241             0.087516
C            -9.100000            -8.487049             0.040262
C            -7.700000            -8.487049             0.046040
H            -9.650000            -9.439677             0.082079
C            -7.000000            -9.699485             0.004736
C            -5.600000            -9.699485             0.072568
H            -7.550000           -10.652112             0.043705
C            -4.900000           -10.911920             0.033196
C            -3.500000           -10.911920             0.007181
H            -5.450000           -11.864548             0.004901
C            -2.800000           -12.124356             0.054931
C            -1.400000           -12.124356             0.092958
H            -3.350000           -13.076984             0.073973
C            -0.700000           -13.336791             0.088100
C             0.700000           -13.336791             0.060212
H            -1.250000           -14.289419             0.049531
C             1.400000           -14.549227             0.007110
C             2.800000           -14.549227             0.035077
H             0.850000           -15.501855             0.085813
H             3.350000           -15.501855             0.036281
