138
isomero_33_46
C             0.700000             1.212436             0.057400
C            -0.700000             1.212436             0.035916
C            -1.400000             0.000000             0.023865
C            -0.700000            -1.212436             0.022410
C             0.700000            -1.212436             0.051952
C             1.400000            -0.000000             0.026537
H             1.250000             2.165064             0.091047
H            -1.250000             2.165064             0.065422
C             2.800000             0.000000             0.016113
C             1.400000            -2.424871             0.083439
C             2.800000            -2.424871             0.031521
C             3.500000            -1.212436             0.032864
H             3.350000             0.952628             0.086589
C             4.900000            -1.212436             0.058427
C             3.500000            -3.637307             0.025558
C             4.900000            -3.637307             0.039302
C             5.600000            -2.424871             0.002405
H             5.450000            -0.259808             0.017459
C             7.000000            -2.424871             0.075670
C             5.600000            -4.849742             0.016002
B             7.000000            -4.849742             0.017202
C             7.700000            -3.637307             0.056446
H             7.550000            -1.472243             0.087994
C             9.100000            -3.637307             0.071077
N             7.700000            -6.062178             0.096420
C             9.100000            -6.062178             0.091132
C             9.800000            -4.849742             0.064881
H             9.650000            -2.684679             0.095879
C            11.200000            -4.849742             0.004671
C             9.800000            -7.274613             0.012988
C            11.200000            -7.274613             0.049475
C            11.900000            -6.062178             0.075095
H            11.750000            -3.897114             0.069991
C            13.300000            -6.062178             0.069525
C            11.900000            -8.487049             0.092021
C            13.300000            -8.487049             0.025857
C            14.000000            -7.274613             0.070529
H            13.850000            -5.109550             0.004463
H            13.850000            -9.439677             0.013632
H            15.100000            -7.274613             0.004363
C            -2.800000             0.000000             0.012004
C            -3.500000            -1.212436             0.052840
C            -2.800000            -2.424871             0.081506
C            -1.400000            -2.424871             0.030715
H            -3.350000             0.952628             0.002741
C            -0.700000            -3.637307             0.093745
C             0.700000            -3.637307             0.014167
C             1.400000            -4.849742             0.019829
C             2.800000            -4.849742             0.080440
C             3.500000            -6.062178             0.064333
C             4.900000            -6.062178             0.070195
C             5.600000            -7.274613             0.054365
C             7.000000            -7.274613             0.080092
C             7.700000            -8.487049             0.064155
C             9.100000            -8.487049             0.094994
C             9.800000            -9.699485             0.014377
C            11.200000            -9.699485             0.002497
H            11.750000           -10.652112             0.044309
C            -4.900000            -1.212436             0.017039
C            -5.600000            -2.424871             0.087008
C            -4.900000            -3.637307             0.099598
C            -3.500000            -3.637307             0.087883
H            -5.450000            -0.259808             0.038448
C            -2.800000            -4.849742             0.049064
C            -1.400000            -4.849742             0.049111
C            -0.700000            -6.062178             0.038070
C             0.700000            -6.062178             0.008260
C             1.400000            -7.274613             0.067559
C             2.800000            -7.274613             0.098807
C             3.500000            -8.487049             0.046786
C             4.900000            -8.487049             0.055543
C             5.600000            -9.699485             0.030439
C             7.000000            -9.699485             0.097892
C             7.700000           -10.911920             0.037933
C             9.100000           -10.911920             0.078246
H             9.650000           -11.864548             0.019348
C            -7.000000            -2.424871             0.095689
C            -7.700000            -3.637307             0.043676
C            -7.000000            -4.849742             0.048659
C            -5.600000            -4.849742             0.083549
H            -7.550000            -1.472243             0.033832
C            -4.900000            -6.062178             0.019851
C            -3.500000            -6.062178             0.070356
C            -2.800000            -7.274613             0.020552
C            -1.400000            -7.274613             0.089811
C            -0.700000            -8.487049             0.047252
C             0.700000            -8.487049             0.012074
C             1.400000            -9.699485             0.031564
C             2.800000            -9.699485             0.019515
C             3.500000           -10.911920             0.073246
C             4.900000           -10.911920             0.054288
C             5.600000           -12.124356             0.079642
C             7.000000           -12.124356             0.008285
H             7.550000           -13.076984             0.099634
C            -9.100000            -3.637307             0.099205
C            -9.800000            -4.849742             0.057323
C            -9.100000            -6.062178             0.006213
C            -7.700000            -6.062178             0.060660
H            -9.650000            -2.684679             0.082861
C            -7.000000            -7.274613             0.085663
C            -5.600000            -7.274613             0.082239
C            -4.900000            -8.487049             0.045325
C            -3.500000            -8.487049             0.094353
C            -2.800000            -9.699485             0.089797
C            -1.400000            -9.699485             0.025090
C            -0.700000           -10.911920             0.024275
C             0.700000           -10.911920             0.062471
C             1.400000           -12.124356             0.004026
C             2.800000           -12.124356             0.014943
C             3.500000           -13.336791             0.007669
C             4.900000           -13.336791             0.094096
H             5.450000           -14.289419             0.084439
C           -11.200000            -4.849742             0.039308
C           -11.900000            -6.062178             0.045283
C           -11.200000            -7.274613             0.049479
C            -9.800000            -7.274613             0.032763
H           -11.750000            -3.897114             0.010508
H           -13.000000            -6.062178             0.068223
H           -11.750000            -8.227241             0.015204
C            -9.100000            -8.487049             0.057574
C            -7.700000            -8.487049             0.034562
H            -9.650000            -9.439677             0.093898
C            -7.000000            -9.699485             0.013363
C            -5.600000            -9.699485             0.032011
H            -7.550000           -10.652112             0.097886
C            -4.900000           -10.911920             0.013473
C            -3.500000           -10.911920             0.059487
H            -5.450000           -11.864548             0.064270
C            -2.800000           -12.124356             0.078192
C            -1.400000           -12.124356             0.097401
H            -3.350000           -13.076984             0.064058
C            -0.700000           -13.336791             0.033141
C             0.700000           -13.336791             0.016834
H            -1.250000           -14.289419             0.011145
C             1.400000           -14.549227             0.007086
C             2.800000           -14.549227             0.094353
H             0.850000           -15.501855             0.061880
H             3.350000           -15.501855             0.010007
