138
isomero_21_32
C             0.700000             1.212436             0.044817
C            -0.700000             1.212436             0.015269
C            -1.400000             0.000000             0.002490
C            -0.700000            -1.212436             0.004048
C             0.700000            -1.212436             0.030382
C             1.400000            -0.000000             0.001537
H             1.250000             2.165064             0.013753
H            -1.250000             2.165064             0.079675
C             2.800000             0.000000             0.010745
C             1.400000            -2.424871             0.002947
C             2.800000            -2.424871             0.076810
C             3.500000            -1.212436             0.007260
H             3.350000             0.952628             0.093351
C             4.900000            -1.212436             0.004717
C             3.500000            -3.637307             0.053759
C             4.900000            -3.637307             0.054264
C             5.600000            -2.424871             0.056499
H             5.450000            -0.259808             0.011479
C             7.000000            -2.424871             0.026602
C             5.600000            -4.849742             0.032240
C             7.000000            -4.849742             0.048925
C             7.700000            -3.637307             0.017940
H             7.550000            -1.472243             0.003259
B             9.100000            -3.637307             0.068671
C             7.700000            -6.062178             0.031058
C             9.100000            -6.062178             0.028592
N             9.800000            -4.849742             0.026535
H             9.650000            -2.684679             0.054442
C            11.200000            -4.849742             0.044203
C             9.800000            -7.274613             0.069686
C            11.200000            -7.274613             0.006323
C            11.900000            -6.062178             0.045887
H            11.750000            -3.897114             0.096417
C            13.300000            -6.062178             0.078624
C            11.900000            -8.487049             0.018839
C            13.300000            -8.487049             0.073410
C            14.000000            -7.274613             0.034913
H            13.850000            -5.109550             0.061855
H            13.850000            -9.439677             0.049485
H            15.100000            -7.274613             0.051158
C            -2.800000             0.000000             0.064088
C            -3.500000            -1.212436             0.053298
C            -2.800000            -2.424871             0.064532
C            -1.400000            -2.424871             0.083765
H            -3.350000             0.952628             0.099380
C            -0.700000            -3.637307             0.000816
C             0.700000            -3.637307             0.015977
C             1.400000            -4.849742             0.048663
C             2.800000            -4.849742             0.053731
C             3.500000            -6.062178             0.086348
C             4.900000            -6.062178             0.074529
C             5.600000            -7.274613             0.069756
C             7.000000            -7.274613             0.063427
C             7.700000            -8.487049             0.048623
C             9.100000            -8.487049             0.051222
C             9.800000            -9.699485             0.098118
C            11.200000            -9.699485             0.099849
H            11.750000           -10.652112             0.078366
C            -4.900000            -1.212436             0.075746
C            -5.600000            -2.424871             0.023767
C            -4.900000            -3.637307             0.036463
C            -3.500000            -3.637307             0.043361
H            -5.450000            -0.259808             0.059482
C            -2.800000            -4.849742             0.021893
C            -1.400000            -4.849742             0.077746
C            -0.700000            -6.062178             0.087072
C             0.700000            -6.062178             0.003720
C             1.400000            -7.274613             0.023845
C             2.800000            -7.274613             0.031913
C             3.500000            -8.487049             0.042727
C             4.900000            -8.487049             0.082659
C             5.600000            -9.699485             0.044540
C             7.000000            -9.699485             0.002030
C             7.700000           -10.911920             0.087398
C             9.100000           -10.911920             0.091896
H             9.650000           -11.864548             0.090958
C            -7.000000            -2.424871             0.048066
C            -7.700000            -3.637307             0.083360
C            -7.000000            -4.849742             0.088250
C            -5.600000            -4.849742             0.017361
H            -7.550000            -1.472243             0.083048
C            -4.900000            -6.062178             0.012927
C            -3.500000            -6.062178             0.005546
C            -2.800000            -7.274613             0.037128
C            -1.400000            -7.274613             0.024002
C            -0.700000            -8.487049             0.092488
C             0.700000            -8.487049             0.071029
C             1.400000            -9.699485             0.084093
C             2.800000            -9.699485             0.055484
C             3.500000           -10.911920             0.063069
C             4.900000           -10.911920             0.085019
C             5.600000           -12.124356             0.021251
C             7.000000           -12.124356             0.055331
H             7.550000           -13.076984             0.024387
C            -9.100000            -3.637307             0.074352
C            -9.800000            -4.849742             0.069879
C            -9.100000            -6.062178             0.029818
C            -7.700000            -6.062178             0.094042
H            -9.650000            -2.684679             0.011185
C            -7.000000            -7.274613             0.069296
C            -5.600000            -7.274613             0.098723
C            -4.900000            -8.487049             0.062180
C            -3.500000            -8.487049             0.048472
C            -2.800000            -9.699485             0.005000
C            -1.400000            -9.699485             0.048533
C            -0.700000           -10.911920             0.082288
C             0.700000           -10.911920             0.040708
C             1.400000           -12.124356             0.034795
C             2.800000           -12.124356             0.013869
C             3.500000           -13.336791             0.049081
C             4.900000           -13.336791             0.072525
H             5.450000           -14.289419             0.032665
C           -11.200000            -4.849742             0.014269
C           -11.900000            -6.062178             0.095493
C           -11.200000            -7.274613             0.095408
C            -9.800000            -7.274613             0.052896
H           -11.750000            -3.897114             0.095903
H           -13.000000            -6.062178             0.047561
H           -11.750000            -8.227241             0.057453
C            -9.100000            -8.487049             0.085944
C            -7.700000            -8.487049             0.041147
H            -9.650000            -9.439677             0.084049
C            -7.000000            -9.699485             0.062092
C            -5.600000            -9.699485             0.055792
H            -7.550000           -10.652112             0.068230
C            -4.900000           -10.911920             0.016474
C            -3.500000           -10.911920             0.065267
H            -5.450000           -11.864548             0.077484
C            -2.800000           -12.124356             0.075813
C            -1.400000           -12.124356             0.046930
H            -3.350000           -13.076984             0.089715
C            -0.700000           -13.336791             0.030929
C             0.700000           -13.336791             0.047299
H            -1.250000           -14.289419             0.014823
C             1.400000           -14.549227             0.027415
C             2.800000           -14.549227             0.075828
H             0.850000           -15.501855             0.002798
H             3.350000           -15.501855             0.083925
