138
isomero_10_17
C             0.700000             1.212436             0.007206
C            -0.700000             1.212436             0.042021
C            -1.400000             0.000000             0.017570
B            -0.700000            -1.212436             0.085531
C             0.700000            -1.212436             0.025890
C             1.400000            -0.000000             0.010491
H             1.250000             2.165064             0.011449
H            -1.250000             2.165064             0.020786
C             2.800000             0.000000             0.011483
C             1.400000            -2.424871             0.000174
C             2.800000            -2.424871             0.040607
C             3.500000            -1.212436             0.021842
H             3.350000             0.952628             0.022432
C             4.900000            -1.212436             0.059671
C             3.500000            -3.637307             0.085246
C             4.900000            -3.637307             0.080329
C             5.600000            -2.424871             0.001693
H             5.450000            -0.259808             0.099990
C             7.000000            -2.424871             0.095779
C             5.600000            -4.849742             0.040806
C             7.000000            -4.849742             0.013872
C             7.700000            -3.637307             0.060911
H             7.550000            -1.472243             0.033314
C             9.100000            -3.637307             0.022910
C             7.700000            -6.062178             0.076978
C             9.100000            -6.062178             0.098973
C             9.800000            -4.849742             0.049755
H             9.650000            -2.684679             0.072243
C            11.200000            -4.849742             0.035010
C             9.800000            -7.274613             0.077641
C            11.200000            -7.274613             0.015510
C            11.900000            -6.062178             0.004307
H            11.750000            -3.897114             0.002295
C            13.300000            -6.062178             0.007862
C            11.900000            -8.487049             0.024333
C            13.300000            -8.487049             0.073497
C            14.000000            -7.274613             0.097149
H            13.850000            -5.109550             0.015042
H            13.850000            -9.439677             0.093263
H            15.100000            -7.274613             0.032441
C            -2.800000             0.000000             0.042824
C            -3.500000            -1.212436             0.003445
C            -2.800000            -2.424871             0.002666
N            -1.400000            -2.424871             0.059598
H            -3.350000             0.952628             0.024389
C            -0.700000            -3.637307             0.054702
C             0.700000            -3.637307             0.001207
C             1.400000            -4.849742             0.082058
C             2.800000            -4.849742             0.038890
C             3.500000            -6.062178             0.093408
C             4.900000            -6.062178             0.005206
C             5.600000            -7.274613             0.015136
C             7.000000            -7.274613             0.067222
C             7.700000            -8.487049             0.006787
C             9.100000            -8.487049             0.090026
C             9.800000            -9.699485             0.020847
C            11.200000            -9.699485             0.005812
H            11.750000           -10.652112             0.044577
C            -4.900000            -1.212436             0.093205
C            -5.600000            -2.424871             0.009866
C            -4.900000            -3.637307             0.057048
C            -3.500000            -3.637307             0.084256
H            -5.450000            -0.259808             0.097240
C            -2.800000            -4.849742             0.019525
C            -1.400000            -4.849742             0.012625
C            -0.700000            -6.062178             0.072763
C             0.700000            -6.062178             0.030125
C             1.400000            -7.274613             0.044693
C             2.800000            -7.274613             0.007199
C             3.500000            -8.487049             0.049801
C             4.900000            -8.487049             0.028332
C             5.600000            -9.699485             0.089296
C             7.000000            -9.699485             0.043383
C             7.700000           -10.911920             0.008594
C             9.100000           -10.911920             0.019915
H             9.650000           -11.864548             0.056959
C            -7.000000            -2.424871             0.031579
C            -7.700000            -3.637307             0.040126
C            -7.000000            -4.849742             0.058985
C            -5.600000            -4.849742             0.041932
H            -7.550000            -1.472243             0.075431
C            -4.900000            -6.062178             0.087369
C            -3.500000            -6.062178             0.024606
C            -2.800000            -7.274613             0.005485
C            -1.400000            -7.274613             0.044169
C            -0.700000            -8.487049             0.004444
C             0.700000            -8.487049             0.084799
C             1.400000            -9.699485             0.021229
C             2.800000            -9.699485             0.069390
C             3.500000           -10.911920             0.078228
C             4.900000           -10.911920             0.069477
C             5.600000           -12.124356             0.073647
C             7.000000           -12.124356             0.015297
H             7.550000           -13.076984             0.022676
C            -9.100000            -3.637307             0.028858
C            -9.800000            -4.849742             0.031309
C            -9.100000            -6.062178             0.019611
C            -7.700000            -6.062178             0.018278
H            -9.650000            -2.684679             0.098760
C            -7.000000            -7.274613             0.098567
C            -5.600000            -7.274613             0.005379
C            -4.900000            -8.487049             0.064478
C            -3.500000            -8.487049             0.086008
C            -2.800000            -9.699485             0.092889
C            -1.400000            -9.699485             0.033625
C            -0.700000           -10.911920             0.054390
C             0.700000           -10.911920             0.074393
C             1.400000           -12.124356             0.050122
C             2.800000           -12.124356             0.003058
C             3.500000           -13.336791             0.037234
C             4.900000           -13.336791             0.041933
H             5.450000           -14.289419             0.014978
C           -11.200000            -4.849742             0.017825
C           -11.900000            -6.062178             0.033856
C           -11.200000            -7.274613             0.090976
C            -9.800000            -7.274613             0.092243
H           -11.750000            -3.897114             0.047297
H           -13.000000            -6.062178             0.067909
H           -11.750000            -8.227241             0.027888
C            -9.100000            -8.487049             0.082325
C            -7.700000            -8.487049             0.072153
H            -9.650000            -9.439677             0.092434
C            -7.000000            -9.699485             0.074327
C            -5.600000            -9.699485             0.034342
H            -7.550000           -10.652112             0.005631
C            -4.900000           -10.911920             0.054721
C            -3.500000           -10.911920             0.061249
H            -5.450000           -11.864548             0.053603
C            -2.800000           -12.124356             0.093898
C            -1.400000           -12.124356             0.003968
H            -3.350000           -13.076984             0.015271
C            -0.700000           -13.336791             0.069140
C             0.700000           -13.336791             0.040195
H            -1.250000           -14.289419             0.029094
C             1.400000           -14.549227             0.074007
C             2.800000           -14.549227             0.010466
H             0.850000           -15.501855             0.073058
H             3.350000           -15.501855             0.072882
