138
isomero_46_45
C             0.700000             1.212436             0.090064
C            -0.700000             1.212436             0.059522
C            -1.400000             0.000000             0.068127
C            -0.700000            -1.212436             0.016071
C             0.700000            -1.212436             0.072323
C             1.400000            -0.000000             0.075580
H             1.250000             2.165064             0.033151
H            -1.250000             2.165064             0.082161
C             2.800000             0.000000             0.066456
C             1.400000            -2.424871             0.079160
C             2.800000            -2.424871             0.064959
C             3.500000            -1.212436             0.057108
H             3.350000             0.952628             0.079976
C             4.900000            -1.212436             0.043859
C             3.500000            -3.637307             0.065268
C             4.900000            -3.637307             0.067822
C             5.600000            -2.424871             0.080042
H             5.450000            -0.259808             0.089978
C             7.000000            -2.424871             0.045096
C             5.600000            -4.849742             0.076388
C             7.000000            -4.849742             0.047124
C             7.700000            -3.637307             0.036895
H             7.550000            -1.472243             0.050123
C             9.100000            -3.637307             0.031854
B             7.700000            -6.062178             0.084876
N             9.100000            -6.062178             0.017925
C             9.800000            -4.849742             0.043522
H             9.650000            -2.684679             0.022304
C            11.200000            -4.849742             0.046568
C             9.800000            -7.274613             0.079823
C            11.200000            -7.274613             0.066777
C            11.900000            -6.062178             0.081668
H            11.750000            -3.897114             0.040637
C            13.300000            -6.062178             0.087597
C            11.900000            -8.487049             0.069239
C            13.300000            -8.487049             0.072558
C            14.000000            -7.274613             0.046795
H            13.850000            -5.109550             0.083014
H            13.850000            -9.439677             0.083682
H            15.100000            -7.274613             0.070817
C            -2.800000             0.000000             0.096075
C            -3.500000            -1.212436             0.035845
C            -2.800000            -2.424871             0.015647
C            -1.400000            -2.424871             0.072910
H            -3.350000             0.952628             0.000711
C            -0.700000            -3.637307             0.005074
C             0.700000            -3.637307             0.029216
C             1.400000            -4.849742             0.070882
C             2.800000            -4.849742             0.058772
C             3.500000            -6.062178             0.066867
C             4.900000            -6.062178             0.096981
C             5.600000            -7.274613             0.073017
C             7.000000            -7.274613             0.079307
C             7.700000            -8.487049             0.037922
C             9.100000            -8.487049             0.066180
C             9.800000            -9.699485             0.079006
C            11.200000            -9.699485             0.045447
H            11.750000           -10.652112             0.022361
C            -4.900000            -1.212436             0.049832
C            -5.600000            -2.424871             0.061419
C            -4.900000            -3.637307             0.016812
C            -3.500000            -3.637307             0.054259
H            -5.450000            -0.259808             0.002190
C            -2.800000            -4.849742             0.020203
C            -1.400000            -4.849742             0.018701
C            -0.700000            -6.062178             0.017076
C             0.700000            -6.062178             0.018407
C             1.400000            -7.274613             0.064292
C             2.800000            -7.274613             0.014739
C             3.500000            -8.487049             0.056083
C             4.900000            -8.487049             0.093652
C             5.600000            -9.699485             0.036891
C             7.000000            -9.699485             0.031038
C             7.700000           -10.911920             0.058966
C             9.100000           -10.911920             0.008539
H             9.650000           -11.864548             0.074831
C            -7.000000            -2.424871             0.018432
C            -7.700000            -3.637307             0.082911
C            -7.000000            -4.849742             0.086863
C            -5.600000            -4.849742             0.099960
H            -7.550000            -1.472243             0.064360
C            -4.900000            -6.062178             0.014910
C            -3.500000            -6.062178             0.067104
C            -2.800000            -7.274613             0.098638
C            -1.400000            -7.274613             0.094086
C            -0.700000            -8.487049             0.059729
C             0.700000            -8.487049             0.012568
C             1.400000            -9.699485             0.011735
C             2.800000            -9.699485             0.047493
C             3.500000           -10.911920             0.034721
C             4.900000           -10.911920             0.050394
C             5.600000           -12.124356             0.054318
C             7.000000           -12.124356             0.069824
H             7.550000           -13.076984             0.080706
C            -9.100000            -3.637307             0.068676
C            -9.800000            -4.849742             0.045547
C            -9.100000            -6.062178             0.065985
C            -7.700000            -6.062178             0.032051
H            -9.650000            -2.684679             0.075783
C            -7.000000            -7.274613             0.098273
C            -5.600000            -7.274613             0.001993
C            -4.900000            -8.487049             0.031356
C            -3.500000            -8.487049             0.074516
C            -2.800000            -9.699485             0.019547
C            -1.400000            -9.699485             0.044811
C            -0.700000           -10.911920             0.068374
C             0.700000           -10.911920             0.065590
C             1.400000           -12.124356             0.083637
C             2.800000           -12.124356             0.098698
C             3.500000           -13.336791             0.074584
C             4.900000           -13.336791             0.079151
H             5.450000           -14.289419             0.086760
C           -11.200000            -4.849742             0.027442
C           -11.900000            -6.062178             0.094550
C           -11.200000            -7.274613             0.034760
C            -9.800000            -7.274613             0.071912
H           -11.750000            -3.897114             0.068085
H           -13.000000            -6.062178             0.018566
H           -11.750000            -8.227241             0.086797
C            -9.100000            -8.487049             0.031075
C            -7.700000            -8.487049             0.015283
H            -9.650000            -9.439677             0.017970
C            -7.000000            -9.699485             0.065005
C            -5.600000            -9.699485             0.006184
H            -7.550000           -10.652112             0.079986
C            -4.900000           -10.911920             0.035439
C            -3.500000           -10.911920             0.017359
H            -5.450000           -11.864548             0.046424
C            -2.800000           -12.124356             0.074582
C            -1.400000           -12.124356             0.018256
H            -3.350000           -13.076984             0.014763
C            -0.700000           -13.336791             0.093539
C             0.700000           -13.336791             0.038187
H            -1.250000           -14.289419             0.018483
C             1.400000           -14.549227             0.096774
C             2.800000           -14.549227             0.045878
H             0.850000           -15.501855             0.097494
H             3.350000           -15.501855             0.066430
