138
isomero_21_22
C             0.700000             1.212436             0.086477
C            -0.700000             1.212436             0.039008
C            -1.400000             0.000000             0.074890
C            -0.700000            -1.212436             0.047735
C             0.700000            -1.212436             0.068314
C             1.400000            -0.000000             0.004773
H             1.250000             2.165064             0.089057
H            -1.250000             2.165064             0.000706
C             2.800000             0.000000             0.086538
C             1.400000            -2.424871             0.048598
C             2.800000            -2.424871             0.067316
C             3.500000            -1.212436             0.086202
H             3.350000             0.952628             0.032278
C             4.900000            -1.212436             0.006079
C             3.500000            -3.637307             0.053899
C             4.900000            -3.637307             0.058723
C             5.600000            -2.424871             0.086852
H             5.450000            -0.259808             0.049709
C             7.000000            -2.424871             0.064022
C             5.600000            -4.849742             0.077483
C             7.000000            -4.849742             0.054678
N             7.700000            -3.637307             0.039150
H             7.550000            -1.472243             0.030343
B             9.100000            -3.637307             0.097431
C             7.700000            -6.062178             0.069150
C             9.100000            -6.062178             0.035837
C             9.800000            -4.849742             0.084404
H             9.650000            -2.684679             0.094475
C            11.200000            -4.849742             0.043712
C             9.800000            -7.274613             0.007419
C            11.200000            -7.274613             0.099806
C            11.900000            -6.062178             0.053154
H            11.750000            -3.897114             0.007846
C            13.300000            -6.062178             0.056690
C            11.900000            -8.487049             0.000868
C            13.300000            -8.487049             0.081251
C            14.000000            -7.274613             0.025688
H            13.850000            -5.109550             0.090521
H            13.850000            -9.439677             0.090964
H            15.100000            -7.274613             0.080415
C            -2.800000             0.000000             0.059493
C            -3.500000            -1.212436             0.068454
C            -2.800000            -2.424871             0.051892
C            -1.400000            -2.424871             0.003425
H            -3.350000             0.952628             0.050592
C            -0.700000            -3.637307             0.065953
C             0.700000            -3.637307             0.025124
C             1.400000            -4.849742             0.024187
C             2.800000            -4.849742             0.092541
C             3.500000            -6.062178             0.058875
C             4.900000            -6.062178             0.062358
C             5.600000            -7.274613             0.029726
C             7.000000            -7.274613             0.062681
C             7.700000            -8.487049             0.025944
C             9.100000            -8.487049             0.023423
C             9.800000            -9.699485             0.078987
C            11.200000            -9.699485             0.078491
H            11.750000           -10.652112             0.090983
C            -4.900000            -1.212436             0.049341
C            -5.600000            -2.424871             0.056138
C            -4.900000            -3.637307             0.030461
C            -3.500000            -3.637307             0.061664
H            -5.450000            -0.259808             0.057722
C            -2.800000            -4.849742             0.050683
C            -1.400000            -4.849742             0.006647
C            -0.700000            -6.062178             0.070647
C             0.700000            -6.062178             0.033262
C             1.400000            -7.274613             0.038182
C             2.800000            -7.274613             0.000288
C             3.500000            -8.487049             0.020676
C             4.900000            -8.487049             0.089318
C             5.600000            -9.699485             0.040307
C             7.000000            -9.699485             0.009355
C             7.700000           -10.911920             0.095827
C             9.100000           -10.911920             0.075402
H             9.650000           -11.864548             0.084144
C            -7.000000            -2.424871             0.083588
C            -7.700000            -3.637307             0.076401
C            -7.000000            -4.849742             0.009313
C            -5.600000            -4.849742             0.045289
H            -7.550000            -1.472243             0.040906
C            -4.900000            -6.062178             0.054309
C            -3.500000            -6.062178             0.037870
C            -2.800000            -7.274613             0.009701
C            -1.400000            -7.274613             0.082110
C            -0.700000            -8.487049             0.015652
C             0.700000            -8.487049             0.000371
C             1.400000            -9.699485             0.066169
C             2.800000            -9.699485             0.035905
C             3.500000           -10.911920             0.004490
C             4.900000           -10.911920             0.048494
C             5.600000           -12.124356             0.093888
C             7.000000           -12.124356             0.004098
H             7.550000           -13.076984             0.079513
C            -9.100000            -3.637307             0.072263
C            -9.800000            -4.849742             0.075585
C            -9.100000            -6.062178             0.082314
C            -7.700000            -6.062178             0.098971
H            -9.650000            -2.684679             0.095649
C            -7.000000            -7.274613             0.068652
C            -5.600000            -7.274613             0.091408
C            -4.900000            -8.487049             0.070000
C            -3.500000            -8.487049             0.048903
C            -2.800000            -9.699485             0.025914
C            -1.400000            -9.699485             0.040655
C            -0.700000           -10.911920             0.027422
C             0.700000           -10.911920             0.002933
C             1.400000           -12.124356             0.084791
C             2.800000           -12.124356             0.060007
C             3.500000           -13.336791             0.056350
C             4.900000           -13.336791             0.055273
H             5.450000           -14.289419             0.022688
C           -11.200000            -4.849742             0.056533
C           -11.900000            -6.062178             0.055753
C           -11.200000            -7.274613             0.048964
C            -9.800000            -7.274613             0.015363
H           -11.750000            -3.897114             0.093935
H           -13.000000            -6.062178             0.043398
H           -11.750000            -8.227241             0.002113
C            -9.100000            -8.487049             0.000549
C            -7.700000            -8.487049             0.039685
H            -9.650000            -9.439677             0.012893
C            -7.000000            -9.699485             0.098718
C            -5.600000            -9.699485             0.092385
H            -7.550000           -10.652112             0.022108
C            -4.900000           -10.911920             0.025052
C            -3.500000           -10.911920             0.080279
H            -5.450000           -11.864548             0.022883
C            -2.800000           -12.124356             0.084559
C            -1.400000           -12.124356             0.089926
H            -3.350000           -13.076984             0.025836
C            -0.700000           -13.336791             0.007718
C             0.700000           -13.336791             0.026320
H            -1.250000           -14.289419             0.087313
C             1.400000           -14.549227             0.098375
C             2.800000           -14.549227             0.092847
H             0.850000           -15.501855             0.064557
H             3.350000           -15.501855             0.098217
