138
isomero_16_25
C             0.700000             1.212436             0.085268
C            -0.700000             1.212436             0.045769
C            -1.400000             0.000000             0.093994
C            -0.700000            -1.212436             0.063178
C             0.700000            -1.212436             0.073463
C             1.400000            -0.000000             0.062525
H             1.250000             2.165064             0.079504
H            -1.250000             2.165064             0.016990
C             2.800000             0.000000             0.017605
B             1.400000            -2.424871             0.061205
C             2.800000            -2.424871             0.000999
C             3.500000            -1.212436             0.073971
H             3.350000             0.952628             0.017463
C             4.900000            -1.212436             0.005592
C             3.500000            -3.637307             0.044211
C             4.900000            -3.637307             0.022762
C             5.600000            -2.424871             0.038387
H             5.450000            -0.259808             0.012999
C             7.000000            -2.424871             0.040451
C             5.600000            -4.849742             0.096381
C             7.000000            -4.849742             0.017461
C             7.700000            -3.637307             0.014905
H             7.550000            -1.472243             0.078976
C             9.100000            -3.637307             0.063051
C             7.700000            -6.062178             0.060525
C             9.100000            -6.062178             0.013043
C             9.800000            -4.849742             0.054927
H             9.650000            -2.684679             0.022674
C            11.200000            -4.849742             0.017360
C             9.800000            -7.274613             0.072383
C            11.200000            -7.274613             0.006091
C            11.900000            -6.062178             0.062381
H            11.750000            -3.897114             0.036687
C            13.300000            -6.062178             0.079972
C            11.900000            -8.487049             0.007782
C            13.300000            -8.487049             0.024700
C            14.000000            -7.274613             0.011398
H            13.850000            -5.109550             0.094740
H            13.850000            -9.439677             0.099309
H            15.100000            -7.274613             0.039183
C            -2.800000             0.000000             0.062713
C            -3.500000            -1.212436             0.043364
C            -2.800000            -2.424871             0.072050
C            -1.400000            -2.424871             0.063445
H            -3.350000             0.952628             0.016613
C            -0.700000            -3.637307             0.095790
N             0.700000            -3.637307             0.019505
C             1.400000            -4.849742             0.022541
C             2.800000            -4.849742             0.094110
C             3.500000            -6.062178             0.075699
C             4.900000            -6.062178             0.018965
C             5.600000            -7.274613             0.009298
C             7.000000            -7.274613             0.033760
C             7.700000            -8.487049             0.017436
C             9.100000            -8.487049             0.086793
C             9.800000            -9.699485             0.024343
C            11.200000            -9.699485             0.023463
H            11.750000           -10.652112             0.073320
C            -4.900000            -1.212436             0.031018
C            -5.600000            -2.424871             0.055949
C            -4.900000            -3.637307             0.037641
C            -3.500000            -3.637307             0.076347
H            -5.450000            -0.259808             0.045779
C            -2.800000            -4.849742             0.066980
C            -1.400000            -4.849742             0.081436
C            -0.700000            -6.062178             0.019556
C             0.700000            -6.062178             0.050139
C             1.400000            -7.274613             0.050792
C             2.800000            -7.274613             0.060435
C             3.500000            -8.487049             0.054383
C             4.900000            -8.487049             0.063726
C             5.600000            -9.699485             0.019137
C             7.000000            -9.699485             0.004252
C             7.700000           -10.911920             0.028966
C             9.100000           -10.911920             0.069850
H             9.650000           -11.864548             0.013840
C            -7.000000            -2.424871             0.002567
C            -7.700000            -3.637307             0.078635
C            -7.000000            -4.849742             0.053115
C            -5.600000            -4.849742             0.011200
H            -7.550000            -1.472243             0.049644
C            -4.900000            -6.062178             0.040476
C            -3.500000            -6.062178             0.075555
C            -2.800000            -7.274613             0.078385
C            -1.400000            -7.274613             0.080498
C            -0.700000            -8.487049             0.090575
C             0.700000            -8.487049             0.088884
C             1.400000            -9.699485             0.013599
C             2.800000            -9.699485             0.072169
C             3.500000           -10.911920             0.059872
C             4.900000           -10.911920             0.042142
C             5.600000           -12.124356             0.099173
C             7.000000           -12.124356             0.029494
H             7.550000           -13.076984             0.082350
C            -9.100000            -3.637307             0.031401
C            -9.800000            -4.849742             0.060679
C            -9.100000            -6.062178             0.030994
C            -7.700000            -6.062178             0.079020
H            -9.650000            -2.684679             0.042490
C            -7.000000            -7.274613             0.001126
C            -5.600000            -7.274613             0.094450
C            -4.900000            -8.487049             0.048605
C            -3.500000            -8.487049             0.097465
C            -2.800000            -9.699485             0.038400
C            -1.400000            -9.699485             0.047918
C            -0.700000           -10.911920             0.061301
C             0.700000           -10.911920             0.015646
C             1.400000           -12.124356             0.077016
C             2.800000           -12.124356             0.035679
C             3.500000           -13.336791             0.080234
C             4.900000           -13.336791             0.072838
H             5.450000           -14.289419             0.073457
C           -11.200000            -4.849742             0.097862
C           -11.900000            -6.062178             0.037123
C           -11.200000            -7.274613             0.054207
C            -9.800000            -7.274613             0.064804
H           -11.750000            -3.897114             0.016448
H           -13.000000            -6.062178             0.071994
H           -11.750000            -8.227241             0.087829
C            -9.100000            -8.487049             0.032659
C            -7.700000            -8.487049             0.051765
H            -9.650000            -9.439677             0.097219
C            -7.000000            -9.699485             0.081033
C            -5.600000            -9.699485             0.086513
H            -7.550000           -10.652112             0.058673
C            -4.900000           -10.911920             0.055404
C            -3.500000           -10.911920             0.082242
H            -5.450000           -11.864548             0.077349
C            -2.800000           -12.124356             0.071513
C            -1.400000           -12.124356             0.051712
H            -3.350000           -13.076984             0.086789
C            -0.700000           -13.336791             0.010654
C             0.700000           -13.336791             0.038585
H            -1.250000           -14.289419             0.006305
C             1.400000           -14.549227             0.055635
C             2.800000           -14.549227             0.073960
H             0.850000           -15.501855             0.093793
H             3.350000           -15.501855             0.041657
