138
isomero_43_56
C             0.700000             1.212436             0.075467
C            -0.700000             1.212436             0.068725
C            -1.400000             0.000000             0.058155
C            -0.700000            -1.212436             0.066135
C             0.700000            -1.212436             0.073528
C             1.400000            -0.000000             0.026626
H             1.250000             2.165064             0.044337
H            -1.250000             2.165064             0.051707
C             2.800000             0.000000             0.040174
C             1.400000            -2.424871             0.097838
C             2.800000            -2.424871             0.096838
C             3.500000            -1.212436             0.023045
H             3.350000             0.952628             0.014056
C             4.900000            -1.212436             0.087324
C             3.500000            -3.637307             0.020893
C             4.900000            -3.637307             0.050593
C             5.600000            -2.424871             0.052836
H             5.450000            -0.259808             0.036206
C             7.000000            -2.424871             0.072059
C             5.600000            -4.849742             0.020777
C             7.000000            -4.849742             0.099466
C             7.700000            -3.637307             0.097243
H             7.550000            -1.472243             0.064580
C             9.100000            -3.637307             0.027009
C             7.700000            -6.062178             0.093831
C             9.100000            -6.062178             0.091980
C             9.800000            -4.849742             0.068803
H             9.650000            -2.684679             0.030726
C            11.200000            -4.849742             0.006693
C             9.800000            -7.274613             0.020486
C            11.200000            -7.274613             0.068907
C            11.900000            -6.062178             0.062288
H            11.750000            -3.897114             0.010239
B            13.300000            -6.062178             0.034015
C            11.900000            -8.487049             0.043040
C            13.300000            -8.487049             0.000146
N            14.000000            -7.274613             0.092771
H            13.850000            -5.109550             0.051090
H            13.850000            -9.439677             0.081218
H            15.100000            -7.274613             0.022823
C            -2.800000             0.000000             0.093524
C            -3.500000            -1.212436             0.092588
C            -2.800000            -2.424871             0.024553
C            -1.400000            -2.424871             0.015328
H            -3.350000             0.952628             0.031810
C            -0.700000            -3.637307             0.029291
C             0.700000            -3.637307             0.038349
C             1.400000            -4.849742             0.010230
C             2.800000            -4.849742             0.038522
C             3.500000            -6.062178             0.046790
C             4.900000            -6.062178             0.030555
C             5.600000            -7.274613             0.046959
C             7.000000            -7.274613             0.085347
C             7.700000            -8.487049             0.077058
C             9.100000            -8.487049             0.064570
C             9.800000            -9.699485             0.028878
C            11.200000            -9.699485             0.043646
H            11.750000           -10.652112             0.072586
C            -4.900000            -1.212436             0.062024
C            -5.600000            -2.424871             0.052211
C            -4.900000            -3.637307             0.004779
C            -3.500000            -3.637307             0.096073
H            -5.450000            -0.259808             0.057873
C            -2.800000            -4.849742             0.095899
C            -1.400000            -4.849742             0.041098
C            -0.700000            -6.062178             0.000866
C             0.700000            -6.062178             0.066460
C             1.400000            -7.274613             0.057202
C             2.800000            -7.274613             0.020507
C             3.500000            -8.487049             0.020416
C             4.900000            -8.487049             0.005248
C             5.600000            -9.699485             0.095561
C             7.000000            -9.699485             0.014271
C             7.700000           -10.911920             0.008078
C             9.100000           -10.911920             0.034337
H             9.650000           -11.864548             0.040674
C            -7.000000            -2.424871             0.045083
C            -7.700000            -3.637307             0.047473
C            -7.000000            -4.849742             0.074142
C            -5.600000            -4.849742             0.003740
H            -7.550000            -1.472243             0.023234
C            -4.900000            -6.062178             0.020447
C            -3.500000            -6.062178             0.012037
C            -2.800000            -7.274613             0.013551
C            -1.400000            -7.274613             0.064855
C            -0.700000            -8.487049             0.027572
C             0.700000            -8.487049             0.078404
C             1.400000            -9.699485             0.025203
C             2.800000            -9.699485             0.060798
C             3.500000           -10.911920             0.012454
C             4.900000           -10.911920             0.006265
C             5.600000           -12.124356             0.018825
C             7.000000           -12.124356             0.079351
H             7.550000           -13.076984             0.055709
C            -9.100000            -3.637307             0.086065
C            -9.800000            -4.849742             0.046357
C            -9.100000            -6.062178             0.048221
C            -7.700000            -6.062178             0.000519
H            -9.650000            -2.684679             0.043281
C            -7.000000            -7.274613             0.050791
C            -5.600000            -7.274613             0.031030
C            -4.900000            -8.487049             0.060891
C            -3.500000            -8.487049             0.082347
C            -2.800000            -9.699485             0.083731
C            -1.400000            -9.699485             0.080235
C            -0.700000           -10.911920             0.059293
C             0.700000           -10.911920             0.008966
C             1.400000           -12.124356             0.002902
C             2.800000           -12.124356             0.018713
C             3.500000           -13.336791             0.023969
C             4.900000           -13.336791             0.094086
H             5.450000           -14.289419             0.013988
C           -11.200000            -4.849742             0.010608
C           -11.900000            -6.062178             0.030494
C           -11.200000            -7.274613             0.088774
C            -9.800000            -7.274613             0.059706
H           -11.750000            -3.897114             0.027787
H           -13.000000            -6.062178             0.086592
H           -11.750000            -8.227241             0.073009
C            -9.100000            -8.487049             0.052774
C            -7.700000            -8.487049             0.062940
H            -9.650000            -9.439677             0.052245
C            -7.000000            -9.699485             0.032983
C            -5.600000            -9.699485             0.008094
H            -7.550000           -10.652112             0.005338
C            -4.900000           -10.911920             0.097896
C            -3.500000           -10.911920             0.071779
H            -5.450000           -11.864548             0.044922
C            -2.800000           -12.124356             0.038591
C            -1.400000           -12.124356             0.023959
H            -3.350000           -13.076984             0.048517
C            -0.700000           -13.336791             0.050658
C             0.700000           -13.336791             0.039658
H            -1.250000           -14.289419             0.096680
C             1.400000           -14.549227             0.007032
C             2.800000           -14.549227             0.000020
H             0.850000           -15.501855             0.001054
H             3.350000           -15.501855             0.087211
