58
isomero_24_25
C             0.700000             1.212436             0.079083
C            -0.700000             1.212436             0.005115
C            -1.400000             0.000000             0.029643
C            -0.700000            -1.212436             0.027214
C             0.700000            -1.212436             0.091345
C             1.400000            -0.000000             0.060547
H             1.250000             2.165064             0.050222
H            -1.250000             2.165064             0.073660
C             2.800000             0.000000             0.011212
C             1.400000            -2.424871             0.088449
C             2.800000            -2.424871             0.052955
C             3.500000            -1.212436             0.000549
H             3.350000             0.952628             0.016287
C             4.900000            -1.212436             0.026233
C             3.500000            -3.637307             0.003887
C             4.900000            -3.637307             0.068206
C             5.600000            -2.424871             0.002820
H             5.450000            -0.259808             0.049995
C             7.000000            -2.424871             0.048069
C             5.600000            -4.849742             0.027853
C             7.000000            -4.849742             0.059049
C             7.700000            -3.637307             0.028742
H             7.550000            -1.472243             0.091995
C             9.100000            -3.637307             0.000606
C             7.700000            -6.062178             0.056453
C             9.100000            -6.062178             0.036869
N             9.800000            -4.849742             0.037136
H             9.650000            -2.684679             0.002119
B            11.200000            -4.849742             0.068725
C             9.800000            -7.274613             0.055456
C            11.200000            -7.274613             0.076544
C            11.900000            -6.062178             0.079134
H            11.750000            -3.897114             0.024656
H            11.750000            -8.227241             0.019981
H            13.000000            -6.062178             0.036694
C            -2.800000             0.000000             0.071957
C            -3.500000            -1.212436             0.012536
C            -2.800000            -2.424871             0.042989
C            -1.400000            -2.424871             0.001635
H            -3.350000             0.952628             0.007102
H            -4.600000            -1.212436             0.071031
H            -3.350000            -3.377499             0.080295
C            -0.700000            -3.637307             0.091020
C             0.700000            -3.637307             0.091212
H            -1.250000            -4.589935             0.062954
C             1.400000            -4.849742             0.013149
C             2.800000            -4.849742             0.006214
H             0.850000            -5.802370             0.077754
C             3.500000            -6.062178             0.074215
C             4.900000            -6.062178             0.062593
H             2.950000            -7.014806             0.072910
C             5.600000            -7.274613             0.020301
C             7.000000            -7.274613             0.079499
H             5.050000            -8.227241             0.097457
C             7.700000            -8.487049             0.042014
C             9.100000            -8.487049             0.024572
H             7.150000            -9.439677             0.048012
H             9.650000            -9.439677             0.066897
