58
isomero_15_22
C             0.700000             1.212436             0.025086
C            -0.700000             1.212436             0.075967
C            -1.400000             0.000000             0.089831
C            -0.700000            -1.212436             0.022342
C             0.700000            -1.212436             0.067330
C             1.400000            -0.000000             0.081879
H             1.250000             2.165064             0.094893
H            -1.250000             2.165064             0.087432
C             2.800000             0.000000             0.039374
B             1.400000            -2.424871             0.093696
C             2.800000            -2.424871             0.043690
C             3.500000            -1.212436             0.016252
H             3.350000             0.952628             0.030982
C             4.900000            -1.212436             0.068111
C             3.500000            -3.637307             0.093405
C             4.900000            -3.637307             0.094739
C             5.600000            -2.424871             0.059908
H             5.450000            -0.259808             0.094887
C             7.000000            -2.424871             0.040402
C             5.600000            -4.849742             0.004103
C             7.000000            -4.849742             0.029383
C             7.700000            -3.637307             0.003194
H             7.550000            -1.472243             0.086451
C             9.100000            -3.637307             0.043255
C             7.700000            -6.062178             0.009281
C             9.100000            -6.062178             0.013779
C             9.800000            -4.849742             0.024197
H             9.650000            -2.684679             0.022301
C            11.200000            -4.849742             0.086774
C             9.800000            -7.274613             0.076418
C            11.200000            -7.274613             0.034471
C            11.900000            -6.062178             0.038478
H            11.750000            -3.897114             0.059487
H            11.750000            -8.227241             0.053512
H            13.000000            -6.062178             0.033356
C            -2.800000             0.000000             0.085468
C            -3.500000            -1.212436             0.026564
C            -2.800000            -2.424871             0.093394
C            -1.400000            -2.424871             0.038983
H            -3.350000             0.952628             0.068307
H            -4.600000            -1.212436             0.027501
H            -3.350000            -3.377499             0.002796
C            -0.700000            -3.637307             0.094061
N             0.700000            -3.637307             0.053397
H            -1.250000            -4.589935             0.067117
C             1.400000            -4.849742             0.060753
C             2.800000            -4.849742             0.075087
H             0.850000            -5.802370             0.098132
C             3.500000            -6.062178             0.072767
C             4.900000            -6.062178             0.085732
H             2.950000            -7.014806             0.099184
C             5.600000            -7.274613             0.075946
C             7.000000            -7.274613             0.014604
H             5.050000            -8.227241             0.032631
C             7.700000            -8.487049             0.002879
C             9.100000            -8.487049             0.069455
H             7.150000            -9.439677             0.095876
H             9.650000            -9.439677             0.072905
