58
isomero_8_7
C             0.700000             1.212436             0.038827
C            -0.700000             1.212436             0.045206
C            -1.400000             0.000000             0.002676
C            -0.700000            -1.212436             0.042529
C             0.700000            -1.212436             0.010581
C             1.400000            -0.000000             0.004311
H             1.250000             2.165064             0.055612
H            -1.250000             2.165064             0.061129
C             2.800000             0.000000             0.073883
C             1.400000            -2.424871             0.025692
C             2.800000            -2.424871             0.072626
B             3.500000            -1.212436             0.071325
H             3.350000             0.952628             0.050376
N             4.900000            -1.212436             0.089277
C             3.500000            -3.637307             0.077939
C             4.900000            -3.637307             0.049486
C             5.600000            -2.424871             0.076151
H             5.450000            -0.259808             0.066704
C             7.000000            -2.424871             0.097811
C             5.600000            -4.849742             0.011707
C             7.000000            -4.849742             0.086932
C             7.700000            -3.637307             0.056786
H             7.550000            -1.472243             0.012015
C             9.100000            -3.637307             0.097033
C             7.700000            -6.062178             0.083997
C             9.100000            -6.062178             0.006232
C             9.800000            -4.849742             0.027807
H             9.650000            -2.684679             0.040963
C            11.200000            -4.849742             0.062681
C             9.800000            -7.274613             0.091910
C            11.200000            -7.274613             0.041515
C            11.900000            -6.062178             0.071150
H            11.750000            -3.897114             0.097087
H            11.750000            -8.227241             0.043547
H            13.000000            -6.062178             0.063538
C            -2.800000             0.000000             0.090156
C            -3.500000            -1.212436             0.087158
C            -2.800000            -2.424871             0.014272
C            -1.400000            -2.424871             0.020060
H            -3.350000             0.952628             0.062093
H            -4.600000            -1.212436             0.077503
H            -3.350000            -3.377499             0.024681
C            -0.700000            -3.637307             0.036945
C             0.700000            -3.637307             0.034110
H            -1.250000            -4.589935             0.045639
C             1.400000            -4.849742             0.017082
C             2.800000            -4.849742             0.074561
H             0.850000            -5.802370             0.009798
C             3.500000            -6.062178             0.089027
C             4.900000            -6.062178             0.008209
H             2.950000            -7.014806             0.078152
C             5.600000            -7.274613             0.084868
C             7.000000            -7.274613             0.045088
H             5.050000            -8.227241             0.060533
C             7.700000            -8.487049             0.035447
C             9.100000            -8.487049             0.075910
H             7.150000            -9.439677             0.058944
H             9.650000            -9.439677             0.061157
