58
isomero_10_16
C             0.700000             1.212436             0.023631
C            -0.700000             1.212436             0.099434
C            -1.400000             0.000000             0.090930
B            -0.700000            -1.212436             0.079079
C             0.700000            -1.212436             0.013515
C             1.400000            -0.000000             0.055034
H             1.250000             2.165064             0.005384
H            -1.250000             2.165064             0.067655
C             2.800000             0.000000             0.082228
C             1.400000            -2.424871             0.091140
C             2.800000            -2.424871             0.014721
C             3.500000            -1.212436             0.030486
H             3.350000             0.952628             0.077987
C             4.900000            -1.212436             0.048723
C             3.500000            -3.637307             0.054917
C             4.900000            -3.637307             0.087822
C             5.600000            -2.424871             0.098829
H             5.450000            -0.259808             0.001915
C             7.000000            -2.424871             0.035132
C             5.600000            -4.849742             0.053465
C             7.000000            -4.849742             0.074782
C             7.700000            -3.637307             0.097001
H             7.550000            -1.472243             0.069514
C             9.100000            -3.637307             0.027327
C             7.700000            -6.062178             0.095114
C             9.100000            -6.062178             0.090767
C             9.800000            -4.849742             0.045742
H             9.650000            -2.684679             0.073317
C            11.200000            -4.849742             0.055824
C             9.800000            -7.274613             0.099389
C            11.200000            -7.274613             0.038930
C            11.900000            -6.062178             0.088168
H            11.750000            -3.897114             0.089327
H            11.750000            -8.227241             0.038600
H            13.000000            -6.062178             0.072755
C            -2.800000             0.000000             0.091265
C            -3.500000            -1.212436             0.090413
C            -2.800000            -2.424871             0.008145
N            -1.400000            -2.424871             0.003334
H            -3.350000             0.952628             0.057241
H            -4.600000            -1.212436             0.000929
H            -3.350000            -3.377499             0.019833
C            -0.700000            -3.637307             0.002068
C             0.700000            -3.637307             0.079227
H            -1.250000            -4.589935             0.019083
C             1.400000            -4.849742             0.095208
C             2.800000            -4.849742             0.077023
H             0.850000            -5.802370             0.081657
C             3.500000            -6.062178             0.042605
C             4.900000            -6.062178             0.030022
H             2.950000            -7.014806             0.068029
C             5.600000            -7.274613             0.085852
C             7.000000            -7.274613             0.087179
H             5.050000            -8.227241             0.089706
C             7.700000            -8.487049             0.084359
C             9.100000            -8.487049             0.048515
H             7.150000            -9.439677             0.048854
H             9.650000            -9.439677             0.006533
