58
isomero_4_9
C             0.700000             1.212436             0.013728
C            -0.700000             1.212436             0.066073
C            -1.400000             0.000000             0.003849
C            -0.700000            -1.212436             0.014816
N             0.700000            -1.212436             0.018476
B             1.400000            -0.000000             0.064536
H             1.250000             2.165064             0.085655
H            -1.250000             2.165064             0.085338
C             2.800000             0.000000             0.049404
C             1.400000            -2.424871             0.078088
C             2.800000            -2.424871             0.027465
C             3.500000            -1.212436             0.096738
H             3.350000             0.952628             0.099053
C             4.900000            -1.212436             0.008445
C             3.500000            -3.637307             0.032979
C             4.900000            -3.637307             0.026830
C             5.600000            -2.424871             0.021592
H             5.450000            -0.259808             0.076702
C             7.000000            -2.424871             0.036505
C             5.600000            -4.849742             0.015402
C             7.000000            -4.849742             0.016502
C             7.700000            -3.637307             0.089336
H             7.550000            -1.472243             0.094579
C             9.100000            -3.637307             0.051747
C             7.700000            -6.062178             0.001837
C             9.100000            -6.062178             0.041931
C             9.800000            -4.849742             0.012209
H             9.650000            -2.684679             0.095185
C            11.200000            -4.849742             0.027018
C             9.800000            -7.274613             0.089365
C            11.200000            -7.274613             0.089519
C            11.900000            -6.062178             0.077553
H            11.750000            -3.897114             0.090882
H            11.750000            -8.227241             0.001668
H            13.000000            -6.062178             0.095929
C            -2.800000             0.000000             0.007525
C            -3.500000            -1.212436             0.028513
C            -2.800000            -2.424871             0.048812
C            -1.400000            -2.424871             0.097057
H            -3.350000             0.952628             0.056811
H            -4.600000            -1.212436             0.027397
H            -3.350000            -3.377499             0.012908
C            -0.700000            -3.637307             0.015519
C             0.700000            -3.637307             0.026881
H            -1.250000            -4.589935             0.043389
C             1.400000            -4.849742             0.039590
C             2.800000            -4.849742             0.042525
H             0.850000            -5.802370             0.061439
C             3.500000            -6.062178             0.044681
C             4.900000            -6.062178             0.001202
H             2.950000            -7.014806             0.003427
C             5.600000            -7.274613             0.039877
C             7.000000            -7.274613             0.097945
H             5.050000            -8.227241             0.054277
C             7.700000            -8.487049             0.091239
C             9.100000            -8.487049             0.032416
H             7.150000            -9.439677             0.029052
H             9.650000            -9.439677             0.087897
