58
isomero_18_25
C             0.700000             1.212436             0.064657
C            -0.700000             1.212436             0.073309
C            -1.400000             0.000000             0.073170
C            -0.700000            -1.212436             0.095818
C             0.700000            -1.212436             0.004595
C             1.400000            -0.000000             0.042436
H             1.250000             2.165064             0.000902
H            -1.250000             2.165064             0.070381
C             2.800000             0.000000             0.078089
C             1.400000            -2.424871             0.056484
C             2.800000            -2.424871             0.002330
C             3.500000            -1.212436             0.000756
H             3.350000             0.952628             0.098897
C             4.900000            -1.212436             0.020165
C             3.500000            -3.637307             0.082334
C             4.900000            -3.637307             0.036095
C             5.600000            -2.424871             0.046125
H             5.450000            -0.259808             0.011005
C             7.000000            -2.424871             0.078126
C             5.600000            -4.849742             0.045344
C             7.000000            -4.849742             0.029710
C             7.700000            -3.637307             0.035840
H             7.550000            -1.472243             0.048244
B             9.100000            -3.637307             0.043122
C             7.700000            -6.062178             0.069882
C             9.100000            -6.062178             0.067507
N             9.800000            -4.849742             0.000687
H             9.650000            -2.684679             0.007899
C            11.200000            -4.849742             0.046063
C             9.800000            -7.274613             0.077754
C            11.200000            -7.274613             0.081676
C            11.900000            -6.062178             0.063139
H            11.750000            -3.897114             0.036488
H            11.750000            -8.227241             0.088750
H            13.000000            -6.062178             0.025093
C            -2.800000             0.000000             0.006612
C            -3.500000            -1.212436             0.072715
C            -2.800000            -2.424871             0.076680
C            -1.400000            -2.424871             0.089833
H            -3.350000             0.952628             0.076683
H            -4.600000            -1.212436             0.094688
H            -3.350000            -3.377499             0.053573
C            -0.700000            -3.637307             0.095978
C             0.700000            -3.637307             0.097819
H            -1.250000            -4.589935             0.052210
C             1.400000            -4.849742             0.084536
C             2.800000            -4.849742             0.089803
H             0.850000            -5.802370             0.093123
C             3.500000            -6.062178             0.045764
C             4.900000            -6.062178             0.075916
H             2.950000            -7.014806             0.093880
C             5.600000            -7.274613             0.081070
C             7.000000            -7.274613             0.093039
H             5.050000            -8.227241             0.044696
C             7.700000            -8.487049             0.083389
C             9.100000            -8.487049             0.098778
H             7.150000            -9.439677             0.036964
H             9.650000            -9.439677             0.017077
