58
isomero_1_2
B             0.700000             1.212436             0.013126
N            -0.700000             1.212436             0.017248
C            -1.400000             0.000000             0.093860
C            -0.700000            -1.212436             0.003448
C             0.700000            -1.212436             0.087956
C             1.400000            -0.000000             0.052233
H             1.250000             2.165064             0.080825
H            -1.250000             2.165064             0.044758
C             2.800000             0.000000             0.034654
C             1.400000            -2.424871             0.075715
C             2.800000            -2.424871             0.036021
C             3.500000            -1.212436             0.055661
H             3.350000             0.952628             0.088872
C             4.900000            -1.212436             0.084016
C             3.500000            -3.637307             0.024403
C             4.900000            -3.637307             0.043562
C             5.600000            -2.424871             0.082855
H             5.450000            -0.259808             0.015270
C             7.000000            -2.424871             0.075795
C             5.600000            -4.849742             0.087651
C             7.000000            -4.849742             0.050212
C             7.700000            -3.637307             0.057027
H             7.550000            -1.472243             0.085148
C             9.100000            -3.637307             0.098464
C             7.700000            -6.062178             0.079021
C             9.100000            -6.062178             0.035068
C             9.800000            -4.849742             0.050190
H             9.650000            -2.684679             0.025521
C            11.200000            -4.849742             0.050987
C             9.800000            -7.274613             0.007862
C            11.200000            -7.274613             0.005590
C            11.900000            -6.062178             0.063499
H            11.750000            -3.897114             0.061690
H            11.750000            -8.227241             0.008147
H            13.000000            -6.062178             0.060952
C            -2.800000             0.000000             0.054467
C            -3.500000            -1.212436             0.085592
C            -2.800000            -2.424871             0.064269
C            -1.400000            -2.424871             0.027163
H            -3.350000             0.952628             0.010675
H            -4.600000            -1.212436             0.006051
H            -3.350000            -3.377499             0.062188
C            -0.700000            -3.637307             0.069907
C             0.700000            -3.637307             0.027494
H            -1.250000            -4.589935             0.042197
C             1.400000            -4.849742             0.036582
C             2.800000            -4.849742             0.008216
H             0.850000            -5.802370             0.006977
C             3.500000            -6.062178             0.012089
C             4.900000            -6.062178             0.067785
H             2.950000            -7.014806             0.021894
C             5.600000            -7.274613             0.023728
C             7.000000            -7.274613             0.000863
H             5.050000            -8.227241             0.072711
C             7.700000            -8.487049             0.056103
C             9.100000            -8.487049             0.055197
H             7.150000            -9.439677             0.074225
H             9.650000            -9.439677             0.082463
