58
isomero_14_21
C             0.700000             1.212436             0.058875
C            -0.700000             1.212436             0.074505
C            -1.400000             0.000000             0.064087
C            -0.700000            -1.212436             0.050368
C             0.700000            -1.212436             0.093804
C             1.400000            -0.000000             0.060534
H             1.250000             2.165064             0.063892
H            -1.250000             2.165064             0.070266
C             2.800000             0.000000             0.086095
C             1.400000            -2.424871             0.037966
B             2.800000            -2.424871             0.071212
C             3.500000            -1.212436             0.052352
H             3.350000             0.952628             0.036349
C             4.900000            -1.212436             0.043468
N             3.500000            -3.637307             0.068760
C             4.900000            -3.637307             0.022685
C             5.600000            -2.424871             0.097900
H             5.450000            -0.259808             0.097567
C             7.000000            -2.424871             0.028951
C             5.600000            -4.849742             0.033843
C             7.000000            -4.849742             0.099644
C             7.700000            -3.637307             0.078897
H             7.550000            -1.472243             0.079492
C             9.100000            -3.637307             0.063237
C             7.700000            -6.062178             0.081145
C             9.100000            -6.062178             0.044809
C             9.800000            -4.849742             0.083061
H             9.650000            -2.684679             0.012666
C            11.200000            -4.849742             0.051327
C             9.800000            -7.274613             0.071593
C            11.200000            -7.274613             0.024815
C            11.900000            -6.062178             0.053190
H            11.750000            -3.897114             0.038221
H            11.750000            -8.227241             0.080176
H            13.000000            -6.062178             0.067086
C            -2.800000             0.000000             0.098286
C            -3.500000            -1.212436             0.093682
C            -2.800000            -2.424871             0.057627
C            -1.400000            -2.424871             0.008019
H            -3.350000             0.952628             0.041382
H            -4.600000            -1.212436             0.018085
H            -3.350000            -3.377499             0.099563
C            -0.700000            -3.637307             0.052039
C             0.700000            -3.637307             0.088528
H            -1.250000            -4.589935             0.064825
C             1.400000            -4.849742             0.046625
C             2.800000            -4.849742             0.009528
H             0.850000            -5.802370             0.096782
C             3.500000            -6.062178             0.062011
C             4.900000            -6.062178             0.015600
H             2.950000            -7.014806             0.039837
C             5.600000            -7.274613             0.088250
C             7.000000            -7.274613             0.053901
H             5.050000            -8.227241             0.054368
C             7.700000            -8.487049             0.044245
C             9.100000            -8.487049             0.018375
H             7.150000            -9.439677             0.024923
H             9.650000            -9.439677             0.028511
