58
isomero_20_27
C             0.700000             1.212436             0.023984
C            -0.700000             1.212436             0.065357
C            -1.400000             0.000000             0.036653
C            -0.700000            -1.212436             0.048125
C             0.700000            -1.212436             0.040169
C             1.400000            -0.000000             0.033380
H             1.250000             2.165064             0.026759
H            -1.250000             2.165064             0.076784
C             2.800000             0.000000             0.024038
C             1.400000            -2.424871             0.096128
C             2.800000            -2.424871             0.092355
C             3.500000            -1.212436             0.027425
H             3.350000             0.952628             0.022328
C             4.900000            -1.212436             0.025212
C             3.500000            -3.637307             0.024699
B             4.900000            -3.637307             0.023958
C             5.600000            -2.424871             0.042825
H             5.450000            -0.259808             0.082593
C             7.000000            -2.424871             0.061719
N             5.600000            -4.849742             0.019387
C             7.000000            -4.849742             0.080808
C             7.700000            -3.637307             0.098563
H             7.550000            -1.472243             0.014860
C             9.100000            -3.637307             0.085303
C             7.700000            -6.062178             0.023860
C             9.100000            -6.062178             0.041694
C             9.800000            -4.849742             0.032240
H             9.650000            -2.684679             0.043404
C            11.200000            -4.849742             0.032742
C             9.800000            -7.274613             0.009897
C            11.200000            -7.274613             0.067117
C            11.900000            -6.062178             0.004936
H            11.750000            -3.897114             0.020100
H            11.750000            -8.227241             0.049914
H            13.000000            -6.062178             0.027542
C            -2.800000             0.000000             0.041960
C            -3.500000            -1.212436             0.059699
C            -2.800000            -2.424871             0.004914
C            -1.400000            -2.424871             0.088668
H            -3.350000             0.952628             0.085830
H            -4.600000            -1.212436             0.008506
H            -3.350000            -3.377499             0.017742
C            -0.700000            -3.637307             0.001340
C             0.700000            -3.637307             0.058999
H            -1.250000            -4.589935             0.070786
C             1.400000            -4.849742             0.075892
C             2.800000            -4.849742             0.021397
H             0.850000            -5.802370             0.096617
C             3.500000            -6.062178             0.048439
C             4.900000            -6.062178             0.006247
H             2.950000            -7.014806             0.017846
C             5.600000            -7.274613             0.033826
C             7.000000            -7.274613             0.088048
H             5.050000            -8.227241             0.004272
C             7.700000            -8.487049             0.035541
C             9.100000            -8.487049             0.064074
H             7.150000            -9.439677             0.082788
H             9.650000            -9.439677             0.004462
