58
isomero_1_4
B             0.700000             1.212436             0.039339
C            -0.700000             1.212436             0.013594
C            -1.400000             0.000000             0.019574
C            -0.700000            -1.212436             0.072030
C             0.700000            -1.212436             0.066963
N             1.400000            -0.000000             0.005985
H             1.250000             2.165064             0.038428
H            -1.250000             2.165064             0.049124
C             2.800000             0.000000             0.077416
C             1.400000            -2.424871             0.014781
C             2.800000            -2.424871             0.048553
C             3.500000            -1.212436             0.007183
H             3.350000             0.952628             0.078744
C             4.900000            -1.212436             0.039373
C             3.500000            -3.637307             0.023616
C             4.900000            -3.637307             0.008057
C             5.600000            -2.424871             0.007900
H             5.450000            -0.259808             0.092743
C             7.000000            -2.424871             0.020472
C             5.600000            -4.849742             0.095658
C             7.000000            -4.849742             0.033974
C             7.700000            -3.637307             0.095997
H             7.550000            -1.472243             0.034315
C             9.100000            -3.637307             0.006342
C             7.700000            -6.062178             0.061247
C             9.100000            -6.062178             0.055561
C             9.800000            -4.849742             0.090645
H             9.650000            -2.684679             0.020123
C            11.200000            -4.849742             0.078769
C             9.800000            -7.274613             0.034772
C            11.200000            -7.274613             0.097215
C            11.900000            -6.062178             0.083605
H            11.750000            -3.897114             0.071181
H            11.750000            -8.227241             0.021490
H            13.000000            -6.062178             0.001545
C            -2.800000             0.000000             0.021004
C            -3.500000            -1.212436             0.053647
C            -2.800000            -2.424871             0.010846
C            -1.400000            -2.424871             0.085376
H            -3.350000             0.952628             0.091085
H            -4.600000            -1.212436             0.033373
H            -3.350000            -3.377499             0.046914
C            -0.700000            -3.637307             0.000290
C             0.700000            -3.637307             0.031091
H            -1.250000            -4.589935             0.048522
C             1.400000            -4.849742             0.026217
C             2.800000            -4.849742             0.068311
H             0.850000            -5.802370             0.091119
C             3.500000            -6.062178             0.057050
C             4.900000            -6.062178             0.026528
H             2.950000            -7.014806             0.092847
C             5.600000            -7.274613             0.006424
C             7.000000            -7.274613             0.062630
H             5.050000            -8.227241             0.094828
C             7.700000            -8.487049             0.051639
C             9.100000            -8.487049             0.095670
H             7.150000            -9.439677             0.027202
H             9.650000            -9.439677             0.052699
