58
isomero_4_3
C             0.700000             1.212436             0.001590
C            -0.700000             1.212436             0.031139
C            -1.400000             0.000000             0.019277
C            -0.700000            -1.212436             0.027547
C             0.700000            -1.212436             0.002671
B             1.400000            -0.000000             0.083064
H             1.250000             2.165064             0.076428
H            -1.250000             2.165064             0.072116
N             2.800000             0.000000             0.082272
C             1.400000            -2.424871             0.076454
C             2.800000            -2.424871             0.012057
C             3.500000            -1.212436             0.038433
H             3.350000             0.952628             0.002792
C             4.900000            -1.212436             0.000130
C             3.500000            -3.637307             0.000700
C             4.900000            -3.637307             0.016778
C             5.600000            -2.424871             0.015044
H             5.450000            -0.259808             0.051549
C             7.000000            -2.424871             0.041888
C             5.600000            -4.849742             0.059381
C             7.000000            -4.849742             0.027698
C             7.700000            -3.637307             0.059283
H             7.550000            -1.472243             0.058514
C             9.100000            -3.637307             0.012159
C             7.700000            -6.062178             0.007859
C             9.100000            -6.062178             0.003207
C             9.800000            -4.849742             0.016817
H             9.650000            -2.684679             0.052417
C            11.200000            -4.849742             0.084137
C             9.800000            -7.274613             0.030641
C            11.200000            -7.274613             0.019116
C            11.900000            -6.062178             0.006512
H            11.750000            -3.897114             0.094601
H            11.750000            -8.227241             0.024477
H            13.000000            -6.062178             0.062540
C            -2.800000             0.000000             0.020667
C            -3.500000            -1.212436             0.024174
C            -2.800000            -2.424871             0.074341
C            -1.400000            -2.424871             0.015600
H            -3.350000             0.952628             0.082317
H            -4.600000            -1.212436             0.009399
H            -3.350000            -3.377499             0.097980
C            -0.700000            -3.637307             0.065322
C             0.700000            -3.637307             0.028411
H            -1.250000            -4.589935             0.086723
C             1.400000            -4.849742             0.003014
C             2.800000            -4.849742             0.076094
H             0.850000            -5.802370             0.089618
C             3.500000            -6.062178             0.061887
C             4.900000            -6.062178             0.072075
H             2.950000            -7.014806             0.046385
C             5.600000            -7.274613             0.075889
C             7.000000            -7.274613             0.000714
H             5.050000            -8.227241             0.019349
C             7.700000            -8.487049             0.009145
C             9.100000            -8.487049             0.016793
H             7.150000            -9.439677             0.094225
H             9.650000            -9.439677             0.084943
