58
isomero_30_24
C             0.700000             1.212436             0.027340
C            -0.700000             1.212436             0.052500
C            -1.400000             0.000000             0.053111
C            -0.700000            -1.212436             0.087338
C             0.700000            -1.212436             0.093761
C             1.400000            -0.000000             0.004872
H             1.250000             2.165064             0.097884
H            -1.250000             2.165064             0.063233
C             2.800000             0.000000             0.007263
C             1.400000            -2.424871             0.021182
C             2.800000            -2.424871             0.035989
C             3.500000            -1.212436             0.042668
H             3.350000             0.952628             0.075815
C             4.900000            -1.212436             0.091575
C             3.500000            -3.637307             0.062974
C             4.900000            -3.637307             0.095591
C             5.600000            -2.424871             0.075512
H             5.450000            -0.259808             0.052611
C             7.000000            -2.424871             0.085011
C             5.600000            -4.849742             0.081603
C             7.000000            -4.849742             0.013213
C             7.700000            -3.637307             0.076072
H             7.550000            -1.472243             0.061723
C             9.100000            -3.637307             0.039765
C             7.700000            -6.062178             0.084127
C             9.100000            -6.062178             0.003832
C             9.800000            -4.849742             0.009621
H             9.650000            -2.684679             0.094810
N            11.200000            -4.849742             0.039602
C             9.800000            -7.274613             0.053226
C            11.200000            -7.274613             0.090364
B            11.900000            -6.062178             0.034004
H            11.750000            -3.897114             0.066390
H            11.750000            -8.227241             0.072736
H            13.000000            -6.062178             0.022301
C            -2.800000             0.000000             0.055545
C            -3.500000            -1.212436             0.045523
C            -2.800000            -2.424871             0.061026
C            -1.400000            -2.424871             0.054399
H            -3.350000             0.952628             0.051836
H            -4.600000            -1.212436             0.028605
H            -3.350000            -3.377499             0.087902
C            -0.700000            -3.637307             0.093654
C             0.700000            -3.637307             0.080621
H            -1.250000            -4.589935             0.096908
C             1.400000            -4.849742             0.052423
C             2.800000            -4.849742             0.011287
H             0.850000            -5.802370             0.065023
C             3.500000            -6.062178             0.019089
C             4.900000            -6.062178             0.085694
H             2.950000            -7.014806             0.094285
C             5.600000            -7.274613             0.010345
C             7.000000            -7.274613             0.029644
H             5.050000            -8.227241             0.079903
C             7.700000            -8.487049             0.044171
C             9.100000            -8.487049             0.049252
H             7.150000            -9.439677             0.002952
H             9.650000            -9.439677             0.057264
