58
isomero_8_14
C             0.700000             1.212436             0.084317
C            -0.700000             1.212436             0.045699
C            -1.400000             0.000000             0.088279
C            -0.700000            -1.212436             0.049357
C             0.700000            -1.212436             0.062285
C             1.400000            -0.000000             0.056217
H             1.250000             2.165064             0.072166
H            -1.250000             2.165064             0.054677
C             2.800000             0.000000             0.078444
C             1.400000            -2.424871             0.044635
N             2.800000            -2.424871             0.091191
B             3.500000            -1.212436             0.008659
H             3.350000             0.952628             0.099894
C             4.900000            -1.212436             0.072758
C             3.500000            -3.637307             0.055841
C             4.900000            -3.637307             0.014282
C             5.600000            -2.424871             0.083764
H             5.450000            -0.259808             0.072525
C             7.000000            -2.424871             0.041738
C             5.600000            -4.849742             0.027317
C             7.000000            -4.849742             0.031471
C             7.700000            -3.637307             0.058170
H             7.550000            -1.472243             0.068936
C             9.100000            -3.637307             0.086387
C             7.700000            -6.062178             0.021086
C             9.100000            -6.062178             0.050675
C             9.800000            -4.849742             0.042505
H             9.650000            -2.684679             0.023970
C            11.200000            -4.849742             0.075752
C             9.800000            -7.274613             0.079191
C            11.200000            -7.274613             0.038588
C            11.900000            -6.062178             0.031805
H            11.750000            -3.897114             0.048093
H            11.750000            -8.227241             0.027851
H            13.000000            -6.062178             0.015804
C            -2.800000             0.000000             0.039541
C            -3.500000            -1.212436             0.028546
C            -2.800000            -2.424871             0.024305
C            -1.400000            -2.424871             0.064252
H            -3.350000             0.952628             0.095692
H            -4.600000            -1.212436             0.018634
H            -3.350000            -3.377499             0.090952
C            -0.700000            -3.637307             0.056874
C             0.700000            -3.637307             0.019352
H            -1.250000            -4.589935             0.070424
C             1.400000            -4.849742             0.065158
C             2.800000            -4.849742             0.033190
H             0.850000            -5.802370             0.052157
C             3.500000            -6.062178             0.002476
C             4.900000            -6.062178             0.002227
H             2.950000            -7.014806             0.079852
C             5.600000            -7.274613             0.010781
C             7.000000            -7.274613             0.068881
H             5.050000            -8.227241             0.077503
C             7.700000            -8.487049             0.079149
C             9.100000            -8.487049             0.070947
H             7.150000            -9.439677             0.094654
H             9.650000            -9.439677             0.029802
