58
isomero_10_5
C             0.700000             1.212436             0.056151
C            -0.700000             1.212436             0.089045
N            -1.400000             0.000000             0.016699
B            -0.700000            -1.212436             0.042524
C             0.700000            -1.212436             0.032690
C             1.400000            -0.000000             0.056759
H             1.250000             2.165064             0.082699
H            -1.250000             2.165064             0.039168
C             2.800000             0.000000             0.062135
C             1.400000            -2.424871             0.096515
C             2.800000            -2.424871             0.082847
C             3.500000            -1.212436             0.081340
H             3.350000             0.952628             0.095509
C             4.900000            -1.212436             0.018312
C             3.500000            -3.637307             0.067043
C             4.900000            -3.637307             0.073560
C             5.600000            -2.424871             0.081955
H             5.450000            -0.259808             0.068102
C             7.000000            -2.424871             0.033006
C             5.600000            -4.849742             0.003469
C             7.000000            -4.849742             0.012019
C             7.700000            -3.637307             0.028371
H             7.550000            -1.472243             0.083824
C             9.100000            -3.637307             0.090135
C             7.700000            -6.062178             0.044995
C             9.100000            -6.062178             0.098854
C             9.800000            -4.849742             0.003379
H             9.650000            -2.684679             0.085945
C            11.200000            -4.849742             0.052856
C             9.800000            -7.274613             0.097546
C            11.200000            -7.274613             0.087722
C            11.900000            -6.062178             0.016134
H            11.750000            -3.897114             0.035338
H            11.750000            -8.227241             0.005801
H            13.000000            -6.062178             0.044412
C            -2.800000             0.000000             0.044109
C            -3.500000            -1.212436             0.032670
C            -2.800000            -2.424871             0.091440
C            -1.400000            -2.424871             0.049456
H            -3.350000             0.952628             0.071024
H            -4.600000            -1.212436             0.066464
H            -3.350000            -3.377499             0.083178
C            -0.700000            -3.637307             0.025804
C             0.700000            -3.637307             0.076924
H            -1.250000            -4.589935             0.041057
C             1.400000            -4.849742             0.005566
C             2.800000            -4.849742             0.087065
H             0.850000            -5.802370             0.097230
C             3.500000            -6.062178             0.011698
C             4.900000            -6.062178             0.050831
H             2.950000            -7.014806             0.075557
C             5.600000            -7.274613             0.010999
C             7.000000            -7.274613             0.003386
H             5.050000            -8.227241             0.044110
C             7.700000            -8.487049             0.012978
C             9.100000            -8.487049             0.097160
H             7.150000            -9.439677             0.094015
H             9.650000            -9.439677             0.093312
