58
isomero_25_18
C             0.700000             1.212436             0.061015
C            -0.700000             1.212436             0.043623
C            -1.400000             0.000000             0.008107
C            -0.700000            -1.212436             0.028396
C             0.700000            -1.212436             0.007323
C             1.400000            -0.000000             0.072998
H             1.250000             2.165064             0.034638
H            -1.250000             2.165064             0.065221
C             2.800000             0.000000             0.048176
C             1.400000            -2.424871             0.038259
C             2.800000            -2.424871             0.032689
C             3.500000            -1.212436             0.010304
H             3.350000             0.952628             0.037041
C             4.900000            -1.212436             0.037744
C             3.500000            -3.637307             0.048180
C             4.900000            -3.637307             0.079562
C             5.600000            -2.424871             0.069139
H             5.450000            -0.259808             0.084979
C             7.000000            -2.424871             0.051228
C             5.600000            -4.849742             0.085503
C             7.000000            -4.849742             0.046544
C             7.700000            -3.637307             0.026485
H             7.550000            -1.472243             0.062948
N             9.100000            -3.637307             0.056273
C             7.700000            -6.062178             0.054116
C             9.100000            -6.062178             0.039331
B             9.800000            -4.849742             0.042046
H             9.650000            -2.684679             0.013712
C            11.200000            -4.849742             0.029218
C             9.800000            -7.274613             0.000732
C            11.200000            -7.274613             0.093270
C            11.900000            -6.062178             0.060926
H            11.750000            -3.897114             0.089185
H            11.750000            -8.227241             0.042082
H            13.000000            -6.062178             0.040018
C            -2.800000             0.000000             0.055393
C            -3.500000            -1.212436             0.059626
C            -2.800000            -2.424871             0.050628
C            -1.400000            -2.424871             0.058721
H            -3.350000             0.952628             0.013282
H            -4.600000            -1.212436             0.076160
H            -3.350000            -3.377499             0.065114
C            -0.700000            -3.637307             0.035109
C             0.700000            -3.637307             0.031260
H            -1.250000            -4.589935             0.027425
C             1.400000            -4.849742             0.014953
C             2.800000            -4.849742             0.033435
H             0.850000            -5.802370             0.083303
C             3.500000            -6.062178             0.023358
C             4.900000            -6.062178             0.006924
H             2.950000            -7.014806             0.049473
C             5.600000            -7.274613             0.012215
C             7.000000            -7.274613             0.040262
H             5.050000            -8.227241             0.009121
C             7.700000            -8.487049             0.072055
C             9.100000            -8.487049             0.034234
H             7.150000            -9.439677             0.056630
H             9.650000            -9.439677             0.065451
