58
isomero_9_15
C             0.700000             1.212436             0.021952
C            -0.700000             1.212436             0.024082
C            -1.400000             0.000000             0.038638
C            -0.700000            -1.212436             0.003350
B             0.700000            -1.212436             0.034672
C             1.400000            -0.000000             0.055204
H             1.250000             2.165064             0.055844
H            -1.250000             2.165064             0.006681
C             2.800000             0.000000             0.058194
N             1.400000            -2.424871             0.047586
C             2.800000            -2.424871             0.066194
C             3.500000            -1.212436             0.078610
H             3.350000             0.952628             0.019003
C             4.900000            -1.212436             0.096151
C             3.500000            -3.637307             0.053506
C             4.900000            -3.637307             0.091452
C             5.600000            -2.424871             0.064566
H             5.450000            -0.259808             0.015347
C             7.000000            -2.424871             0.005218
C             5.600000            -4.849742             0.001505
C             7.000000            -4.849742             0.019636
C             7.700000            -3.637307             0.052771
H             7.550000            -1.472243             0.014767
C             9.100000            -3.637307             0.007313
C             7.700000            -6.062178             0.055484
C             9.100000            -6.062178             0.098128
C             9.800000            -4.849742             0.016286
H             9.650000            -2.684679             0.015660
C            11.200000            -4.849742             0.016367
C             9.800000            -7.274613             0.007849
C            11.200000            -7.274613             0.071840
C            11.900000            -6.062178             0.044627
H            11.750000            -3.897114             0.051012
H            11.750000            -8.227241             0.060514
H            13.000000            -6.062178             0.088307
C            -2.800000             0.000000             0.012192
C            -3.500000            -1.212436             0.029026
C            -2.800000            -2.424871             0.006234
C            -1.400000            -2.424871             0.014353
H            -3.350000             0.952628             0.006797
H            -4.600000            -1.212436             0.018509
H            -3.350000            -3.377499             0.076868
C            -0.700000            -3.637307             0.089768
C             0.700000            -3.637307             0.051827
H            -1.250000            -4.589935             0.084463
C             1.400000            -4.849742             0.022876
C             2.800000            -4.849742             0.042837
H             0.850000            -5.802370             0.036829
C             3.500000            -6.062178             0.069605
C             4.900000            -6.062178             0.094438
H             2.950000            -7.014806             0.021789
C             5.600000            -7.274613             0.075300
C             7.000000            -7.274613             0.051984
H             5.050000            -8.227241             0.076007
C             7.700000            -8.487049             0.088087
C             9.100000            -8.487049             0.023748
H             7.150000            -9.439677             0.093969
H             9.650000            -9.439677             0.002715
