58
isomero_3_8
C             0.700000             1.212436             0.005609
C            -0.700000             1.212436             0.065810
C            -1.400000             0.000000             0.057582
C            -0.700000            -1.212436             0.007384
C             0.700000            -1.212436             0.024157
C             1.400000            -0.000000             0.035120
H             1.250000             2.165064             0.012674
H            -1.250000             2.165064             0.073941
B             2.800000             0.000000             0.044568
C             1.400000            -2.424871             0.001761
C             2.800000            -2.424871             0.068171
N             3.500000            -1.212436             0.088083
H             3.350000             0.952628             0.013982
C             4.900000            -1.212436             0.081085
C             3.500000            -3.637307             0.025286
C             4.900000            -3.637307             0.002439
C             5.600000            -2.424871             0.053072
H             5.450000            -0.259808             0.093485
C             7.000000            -2.424871             0.076933
C             5.600000            -4.849742             0.040475
C             7.000000            -4.849742             0.071781
C             7.700000            -3.637307             0.048132
H             7.550000            -1.472243             0.044118
C             9.100000            -3.637307             0.094236
C             7.700000            -6.062178             0.057878
C             9.100000            -6.062178             0.078361
C             9.800000            -4.849742             0.071481
H             9.650000            -2.684679             0.014217
C            11.200000            -4.849742             0.069292
C             9.800000            -7.274613             0.039365
C            11.200000            -7.274613             0.012777
C            11.900000            -6.062178             0.064090
H            11.750000            -3.897114             0.049751
H            11.750000            -8.227241             0.006397
H            13.000000            -6.062178             0.052354
C            -2.800000             0.000000             0.031454
C            -3.500000            -1.212436             0.085489
C            -2.800000            -2.424871             0.000902
C            -1.400000            -2.424871             0.020259
H            -3.350000             0.952628             0.088060
H            -4.600000            -1.212436             0.021805
H            -3.350000            -3.377499             0.031769
C            -0.700000            -3.637307             0.034396
C             0.700000            -3.637307             0.080008
H            -1.250000            -4.589935             0.057108
C             1.400000            -4.849742             0.081324
C             2.800000            -4.849742             0.008618
H             0.850000            -5.802370             0.019214
C             3.500000            -6.062178             0.062950
C             4.900000            -6.062178             0.006386
H             2.950000            -7.014806             0.074296
C             5.600000            -7.274613             0.060340
C             7.000000            -7.274613             0.079844
H             5.050000            -8.227241             0.016059
C             7.700000            -8.487049             0.073793
C             9.100000            -8.487049             0.075704
H             7.150000            -9.439677             0.088131
H             9.650000            -9.439677             0.042924
