58
isomero_14_15
C             0.700000             1.212436             0.017307
C            -0.700000             1.212436             0.051738
C            -1.400000             0.000000             0.099534
C            -0.700000            -1.212436             0.070761
C             0.700000            -1.212436             0.008057
C             1.400000            -0.000000             0.004331
H             1.250000             2.165064             0.049116
H            -1.250000             2.165064             0.044660
C             2.800000             0.000000             0.048680
N             1.400000            -2.424871             0.016589
B             2.800000            -2.424871             0.036066
C             3.500000            -1.212436             0.088072
H             3.350000             0.952628             0.074435
C             4.900000            -1.212436             0.041677
C             3.500000            -3.637307             0.090735
C             4.900000            -3.637307             0.009431
C             5.600000            -2.424871             0.018133
H             5.450000            -0.259808             0.094659
C             7.000000            -2.424871             0.010085
C             5.600000            -4.849742             0.038804
C             7.000000            -4.849742             0.028922
C             7.700000            -3.637307             0.007309
H             7.550000            -1.472243             0.019461
C             9.100000            -3.637307             0.041749
C             7.700000            -6.062178             0.029293
C             9.100000            -6.062178             0.070214
C             9.800000            -4.849742             0.023971
H             9.650000            -2.684679             0.095948
C            11.200000            -4.849742             0.030546
C             9.800000            -7.274613             0.015492
C            11.200000            -7.274613             0.055551
C            11.900000            -6.062178             0.079054
H            11.750000            -3.897114             0.044387
H            11.750000            -8.227241             0.099582
H            13.000000            -6.062178             0.043659
C            -2.800000             0.000000             0.030444
C            -3.500000            -1.212436             0.024651
C            -2.800000            -2.424871             0.096083
C            -1.400000            -2.424871             0.022288
H            -3.350000             0.952628             0.039561
H            -4.600000            -1.212436             0.022452
H            -3.350000            -3.377499             0.027002
C            -0.700000            -3.637307             0.041844
C             0.700000            -3.637307             0.099774
H            -1.250000            -4.589935             0.091103
C             1.400000            -4.849742             0.055043
C             2.800000            -4.849742             0.059634
H             0.850000            -5.802370             0.007915
C             3.500000            -6.062178             0.057664
C             4.900000            -6.062178             0.089817
H             2.950000            -7.014806             0.046331
C             5.600000            -7.274613             0.039840
C             7.000000            -7.274613             0.010446
H             5.050000            -8.227241             0.065224
C             7.700000            -8.487049             0.099170
C             9.100000            -8.487049             0.067807
H             7.150000            -9.439677             0.042848
H             9.650000            -9.439677             0.065480
