58
isomero_13_12
C             0.700000             1.212436             0.027368
C            -0.700000             1.212436             0.029268
C            -1.400000             0.000000             0.034815
C            -0.700000            -1.212436             0.087597
C             0.700000            -1.212436             0.009332
C             1.400000            -0.000000             0.020668
H             1.250000             2.165064             0.030276
H            -1.250000             2.165064             0.035152
C             2.800000             0.000000             0.072675
C             1.400000            -2.424871             0.088633
C             2.800000            -2.424871             0.005193
C             3.500000            -1.212436             0.007856
H             3.350000             0.952628             0.001449
C             4.900000            -1.212436             0.019334
C             3.500000            -3.637307             0.002629
C             4.900000            -3.637307             0.046877
B             5.600000            -2.424871             0.024338
H             5.450000            -0.259808             0.091992
N             7.000000            -2.424871             0.071583
C             5.600000            -4.849742             0.048865
C             7.000000            -4.849742             0.007807
C             7.700000            -3.637307             0.053007
H             7.550000            -1.472243             0.066605
C             9.100000            -3.637307             0.060771
C             7.700000            -6.062178             0.041955
C             9.100000            -6.062178             0.011080
C             9.800000            -4.849742             0.081661
H             9.650000            -2.684679             0.024930
C            11.200000            -4.849742             0.050918
C             9.800000            -7.274613             0.080413
C            11.200000            -7.274613             0.050983
C            11.900000            -6.062178             0.030270
H            11.750000            -3.897114             0.086193
H            11.750000            -8.227241             0.005739
H            13.000000            -6.062178             0.073076
C            -2.800000             0.000000             0.090088
C            -3.500000            -1.212436             0.046404
C            -2.800000            -2.424871             0.046936
C            -1.400000            -2.424871             0.015381
H            -3.350000             0.952628             0.096179
H            -4.600000            -1.212436             0.087625
H            -3.350000            -3.377499             0.048863
C            -0.700000            -3.637307             0.040708
C             0.700000            -3.637307             0.012658
H            -1.250000            -4.589935             0.092543
C             1.400000            -4.849742             0.000558
C             2.800000            -4.849742             0.018639
H             0.850000            -5.802370             0.032406
C             3.500000            -6.062178             0.005019
C             4.900000            -6.062178             0.014454
H             2.950000            -7.014806             0.072937
C             5.600000            -7.274613             0.048228
C             7.000000            -7.274613             0.033806
H             5.050000            -8.227241             0.023677
C             7.700000            -8.487049             0.045086
C             9.100000            -8.487049             0.018545
H             7.150000            -9.439677             0.032425
H             9.650000            -9.439677             0.026397
