58
isomero_10_9
C             0.700000             1.212436             0.098376
C            -0.700000             1.212436             0.069304
C            -1.400000             0.000000             0.070248
B            -0.700000            -1.212436             0.037131
N             0.700000            -1.212436             0.006411
C             1.400000            -0.000000             0.044345
H             1.250000             2.165064             0.054299
H            -1.250000             2.165064             0.054016
C             2.800000             0.000000             0.078628
C             1.400000            -2.424871             0.060141
C             2.800000            -2.424871             0.094701
C             3.500000            -1.212436             0.063122
H             3.350000             0.952628             0.087884
C             4.900000            -1.212436             0.012269
C             3.500000            -3.637307             0.081355
C             4.900000            -3.637307             0.097760
C             5.600000            -2.424871             0.023124
H             5.450000            -0.259808             0.091274
C             7.000000            -2.424871             0.067637
C             5.600000            -4.849742             0.072507
C             7.000000            -4.849742             0.068579
C             7.700000            -3.637307             0.079672
H             7.550000            -1.472243             0.052963
C             9.100000            -3.637307             0.075464
C             7.700000            -6.062178             0.050355
C             9.100000            -6.062178             0.090704
C             9.800000            -4.849742             0.012361
H             9.650000            -2.684679             0.085223
C            11.200000            -4.849742             0.017505
C             9.800000            -7.274613             0.076417
C            11.200000            -7.274613             0.045933
C            11.900000            -6.062178             0.060606
H            11.750000            -3.897114             0.036404
H            11.750000            -8.227241             0.040195
H            13.000000            -6.062178             0.073007
C            -2.800000             0.000000             0.095513
C            -3.500000            -1.212436             0.087880
C            -2.800000            -2.424871             0.060973
C            -1.400000            -2.424871             0.096777
H            -3.350000             0.952628             0.063414
H            -4.600000            -1.212436             0.077726
H            -3.350000            -3.377499             0.089850
C            -0.700000            -3.637307             0.022657
C             0.700000            -3.637307             0.010127
H            -1.250000            -4.589935             0.082826
C             1.400000            -4.849742             0.042447
C             2.800000            -4.849742             0.072710
H             0.850000            -5.802370             0.093675
C             3.500000            -6.062178             0.029653
C             4.900000            -6.062178             0.031220
H             2.950000            -7.014806             0.054970
C             5.600000            -7.274613             0.055258
C             7.000000            -7.274613             0.064040
H             5.050000            -8.227241             0.059665
C             7.700000            -8.487049             0.016117
C             9.100000            -8.487049             0.041791
H             7.150000            -9.439677             0.036906
H             9.650000            -9.439677             0.008026
