58
isomero_25_24
C             0.700000             1.212436             0.065250
C            -0.700000             1.212436             0.070086
C            -1.400000             0.000000             0.030110
C            -0.700000            -1.212436             0.008546
C             0.700000            -1.212436             0.063344
C             1.400000            -0.000000             0.026643
H             1.250000             2.165064             0.089425
H            -1.250000             2.165064             0.030027
C             2.800000             0.000000             0.071506
C             1.400000            -2.424871             0.033035
C             2.800000            -2.424871             0.036487
C             3.500000            -1.212436             0.059235
H             3.350000             0.952628             0.090519
C             4.900000            -1.212436             0.026453
C             3.500000            -3.637307             0.094983
C             4.900000            -3.637307             0.073873
C             5.600000            -2.424871             0.000446
H             5.450000            -0.259808             0.085074
C             7.000000            -2.424871             0.069557
C             5.600000            -4.849742             0.056243
C             7.000000            -4.849742             0.033772
C             7.700000            -3.637307             0.033280
H             7.550000            -1.472243             0.007732
C             9.100000            -3.637307             0.045830
C             7.700000            -6.062178             0.065719
C             9.100000            -6.062178             0.057195
B             9.800000            -4.849742             0.040211
H             9.650000            -2.684679             0.093470
N            11.200000            -4.849742             0.036053
C             9.800000            -7.274613             0.094771
C            11.200000            -7.274613             0.003012
C            11.900000            -6.062178             0.044110
H            11.750000            -3.897114             0.070071
H            11.750000            -8.227241             0.070299
H            13.000000            -6.062178             0.051017
C            -2.800000             0.000000             0.061224
C            -3.500000            -1.212436             0.074637
C            -2.800000            -2.424871             0.080144
C            -1.400000            -2.424871             0.033672
H            -3.350000             0.952628             0.056409
H            -4.600000            -1.212436             0.085527
H            -3.350000            -3.377499             0.058916
C            -0.700000            -3.637307             0.050824
C             0.700000            -3.637307             0.085343
H            -1.250000            -4.589935             0.068380
C             1.400000            -4.849742             0.010634
C             2.800000            -4.849742             0.050196
H             0.850000            -5.802370             0.001917
C             3.500000            -6.062178             0.044261
C             4.900000            -6.062178             0.090718
H             2.950000            -7.014806             0.004467
C             5.600000            -7.274613             0.094519
C             7.000000            -7.274613             0.018038
H             5.050000            -8.227241             0.036991
C             7.700000            -8.487049             0.020524
C             9.100000            -8.487049             0.009559
H             7.150000            -9.439677             0.043274
H             9.650000            -9.439677             0.027756
