58
isomero_30_35
C             0.700000             1.212436             0.057246
C            -0.700000             1.212436             0.074169
C            -1.400000             0.000000             0.007661
C            -0.700000            -1.212436             0.078717
C             0.700000            -1.212436             0.019349
C             1.400000            -0.000000             0.053093
H             1.250000             2.165064             0.092413
H            -1.250000             2.165064             0.098606
C             2.800000             0.000000             0.097529
C             1.400000            -2.424871             0.030477
C             2.800000            -2.424871             0.075364
C             3.500000            -1.212436             0.020636
H             3.350000             0.952628             0.086138
C             4.900000            -1.212436             0.065784
C             3.500000            -3.637307             0.010221
C             4.900000            -3.637307             0.058046
C             5.600000            -2.424871             0.096349
H             5.450000            -0.259808             0.084487
C             7.000000            -2.424871             0.075311
C             5.600000            -4.849742             0.070305
C             7.000000            -4.849742             0.024662
C             7.700000            -3.637307             0.003994
H             7.550000            -1.472243             0.046211
C             9.100000            -3.637307             0.011737
C             7.700000            -6.062178             0.016162
C             9.100000            -6.062178             0.041976
C             9.800000            -4.849742             0.066612
H             9.650000            -2.684679             0.097315
C            11.200000            -4.849742             0.027965
C             9.800000            -7.274613             0.053139
N            11.200000            -7.274613             0.093069
B            11.900000            -6.062178             0.016666
H            11.750000            -3.897114             0.078925
H            11.750000            -8.227241             0.010297
H            13.000000            -6.062178             0.088362
C            -2.800000             0.000000             0.052224
C            -3.500000            -1.212436             0.097413
C            -2.800000            -2.424871             0.075610
C            -1.400000            -2.424871             0.072257
H            -3.350000             0.952628             0.000260
H            -4.600000            -1.212436             0.020561
H            -3.350000            -3.377499             0.026037
C            -0.700000            -3.637307             0.007995
C             0.700000            -3.637307             0.073533
H            -1.250000            -4.589935             0.082265
C             1.400000            -4.849742             0.034339
C             2.800000            -4.849742             0.013614
H             0.850000            -5.802370             0.066589
C             3.500000            -6.062178             0.083044
C             4.900000            -6.062178             0.067362
H             2.950000            -7.014806             0.013946
C             5.600000            -7.274613             0.037883
C             7.000000            -7.274613             0.067836
H             5.050000            -8.227241             0.051593
C             7.700000            -8.487049             0.097806
C             9.100000            -8.487049             0.026772
H             7.150000            -9.439677             0.086691
H             9.650000            -9.439677             0.037375
