156
isomero_42_41
C             0.700000             1.212436             0.060289
C            -0.700000             1.212436             0.090709
C            -1.400000             0.000000             0.089649
C            -0.700000            -1.212436             0.038216
C             0.700000            -1.212436             0.005426
C             1.400000            -0.000000             0.078414
H             1.250000             2.165064             0.087189
H            -1.250000             2.165064             0.021723
C             2.800000             0.000000             0.062244
C             1.400000            -2.424871             0.096367
C             2.800000            -2.424871             0.062876
C             3.500000            -1.212436             0.060469
H             3.350000             0.952628             0.008428
C             4.900000            -1.212436             0.078150
C             3.500000            -3.637307             0.066451
C             4.900000            -3.637307             0.070235
C             5.600000            -2.424871             0.057514
H             5.450000            -0.259808             0.020671
C             7.000000            -2.424871             0.036579
C             5.600000            -4.849742             0.085917
C             7.000000            -4.849742             0.090571
C             7.700000            -3.637307             0.009661
H             7.550000            -1.472243             0.037648
C             9.100000            -3.637307             0.077346
C             7.700000            -6.062178             0.083552
C             9.100000            -6.062178             0.070552
C             9.800000            -4.849742             0.077972
H             9.650000            -2.684679             0.033713
C            11.200000            -4.849742             0.081803
C             9.800000            -7.274613             0.074837
C            11.200000            -7.274613             0.031024
C            11.900000            -6.062178             0.098977
H            11.750000            -3.897114             0.030460
C            13.300000            -6.062178             0.086393
C            11.900000            -8.487049             0.056479
C            13.300000            -8.487049             0.055728
C            14.000000            -7.274613             0.043698
H            13.850000            -5.109550             0.021078
H            13.850000            -9.439677             0.050548
H            15.100000            -7.274613             0.097157
C            -2.800000             0.000000             0.083496
C            -3.500000            -1.212436             0.060650
C            -2.800000            -2.424871             0.033141
C            -1.400000            -2.424871             0.017667
H            -3.350000             0.952628             0.069864
C            -0.700000            -3.637307             0.074395
C             0.700000            -3.637307             0.096053
C             1.400000            -4.849742             0.094434
C             2.800000            -4.849742             0.013782
C             3.500000            -6.062178             0.033730
C             4.900000            -6.062178             0.010881
C             5.600000            -7.274613             0.041837
C             7.000000            -7.274613             0.075435
C             7.700000            -8.487049             0.039850
C             9.100000            -8.487049             0.020083
C             9.800000            -9.699485             0.099532
C            11.200000            -9.699485             0.080619
H            11.750000           -10.652112             0.045517
C            -4.900000            -1.212436             0.066033
C            -5.600000            -2.424871             0.051935
C            -4.900000            -3.637307             0.069929
C            -3.500000            -3.637307             0.011015
H            -5.450000            -0.259808             0.033098
C            -2.800000            -4.849742             0.018681
C            -1.400000            -4.849742             0.069738
C            -0.700000            -6.062178             0.050743
C             0.700000            -6.062178             0.097906
C             1.400000            -7.274613             0.025980
C             2.800000            -7.274613             0.091062
C             3.500000            -8.487049             0.003416
C             4.900000            -8.487049             0.021425
C             5.600000            -9.699485             0.022914
C             7.000000            -9.699485             0.030796
C             7.700000           -10.911920             0.067369
C             9.100000           -10.911920             0.042862
H             9.650000           -11.864548             0.037659
C            -7.000000            -2.424871             0.064005
C            -7.700000            -3.637307             0.052310
C            -7.000000            -4.849742             0.009589
C            -5.600000            -4.849742             0.060854
H            -7.550000            -1.472243             0.026412
C            -4.900000            -6.062178             0.026607
C            -3.500000            -6.062178             0.044817
C            -2.800000            -7.274613             0.079443
C            -1.400000            -7.274613             0.070675
C            -0.700000            -8.487049             0.039116
C             0.700000            -8.487049             0.031149
C             1.400000            -9.699485             0.044587
C             2.800000            -9.699485             0.014703
C             3.500000           -10.911920             0.042878
C             4.900000           -10.911920             0.031126
C             5.600000           -12.124356             0.081839
C             7.000000           -12.124356             0.084402
H             7.550000           -13.076984             0.093030
C            -9.100000            -3.637307             0.022420
N            -9.800000            -4.849742             0.090760
C            -9.100000            -6.062178             0.068972
C            -7.700000            -6.062178             0.026423
H            -9.650000            -2.684679             0.040276
C            -7.000000            -7.274613             0.021944
C            -5.600000            -7.274613             0.084311
C            -4.900000            -8.487049             0.063671
C            -3.500000            -8.487049             0.014587
C            -2.800000            -9.699485             0.074398
C            -1.400000            -9.699485             0.086439
C            -0.700000           -10.911920             0.084841
C             0.700000           -10.911920             0.082013
C             1.400000           -12.124356             0.049470
C             2.800000           -12.124356             0.041750
C             3.500000           -13.336791             0.094023
C             4.900000           -13.336791             0.057814
H             5.450000           -14.289419             0.083221
B           -11.200000            -4.849742             0.065557
C           -11.900000            -6.062178             0.094628
C           -11.200000            -7.274613             0.069717
C            -9.800000            -7.274613             0.022650
H           -11.750000            -3.897114             0.009728
C            -9.100000            -8.487049             0.067811
C            -7.700000            -8.487049             0.005943
C            -7.000000            -9.699485             0.075620
C            -5.600000            -9.699485             0.003367
C            -4.900000           -10.911920             0.015500
C            -3.500000           -10.911920             0.080229
C            -2.800000           -12.124356             0.095140
C            -1.400000           -12.124356             0.085416
C            -0.700000           -13.336791             0.017072
C             0.700000           -13.336791             0.038894
C             1.400000           -14.549227             0.091257
C             2.800000           -14.549227             0.033650
H             3.350000           -15.501855             0.015221
C           -13.300000            -6.062178             0.050189
C           -14.000000            -7.274613             0.062228
C           -13.300000            -8.487049             0.030757
C           -11.900000            -8.487049             0.095942
H           -13.850000            -5.109550             0.065167
H           -15.100000            -7.274613             0.086135
H           -13.850000            -9.439677             0.047277
C           -11.200000            -9.699485             0.041371
C            -9.800000            -9.699485             0.013738
H           -11.750000           -10.652112             0.037604
C            -9.100000           -10.911920             0.031297
C            -7.700000           -10.911920             0.063751
H            -9.650000           -11.864548             0.010403
C            -7.000000           -12.124356             0.076619
C            -5.600000           -12.124356             0.052106
H            -7.550000           -13.076984             0.081034
C            -4.900000           -13.336791             0.098470
C            -3.500000           -13.336791             0.088942
H            -5.450000           -14.289419             0.084487
C            -2.800000           -14.549227             0.000886
C            -1.400000           -14.549227             0.033990
H            -3.350000           -15.501855             0.072834
C            -0.700000           -15.761662             0.092822
C             0.700000           -15.761662             0.039221
H            -1.250000           -16.714290             0.028275
H             1.250000           -16.714290             0.043930
