156
isomero_65_64
C             0.700000             1.212436             0.097728
C            -0.700000             1.212436             0.096471
C            -1.400000             0.000000             0.043263
C            -0.700000            -1.212436             0.028104
C             0.700000            -1.212436             0.009638
C             1.400000            -0.000000             0.012432
H             1.250000             2.165064             0.038846
H            -1.250000             2.165064             0.000892
C             2.800000             0.000000             0.092014
C             1.400000            -2.424871             0.022696
C             2.800000            -2.424871             0.038499
C             3.500000            -1.212436             0.008925
H             3.350000             0.952628             0.073770
C             4.900000            -1.212436             0.009959
C             3.500000            -3.637307             0.004142
C             4.900000            -3.637307             0.087916
C             5.600000            -2.424871             0.050477
H             5.450000            -0.259808             0.060426
C             7.000000            -2.424871             0.025303
C             5.600000            -4.849742             0.082754
C             7.000000            -4.849742             0.072659
C             7.700000            -3.637307             0.004497
H             7.550000            -1.472243             0.052040
C             9.100000            -3.637307             0.075275
C             7.700000            -6.062178             0.002409
C             9.100000            -6.062178             0.082407
C             9.800000            -4.849742             0.052905
H             9.650000            -2.684679             0.065953
C            11.200000            -4.849742             0.048240
C             9.800000            -7.274613             0.034431
C            11.200000            -7.274613             0.015962
C            11.900000            -6.062178             0.040903
H            11.750000            -3.897114             0.069663
C            13.300000            -6.062178             0.013524
C            11.900000            -8.487049             0.096490
C            13.300000            -8.487049             0.057774
C            14.000000            -7.274613             0.015216
H            13.850000            -5.109550             0.024302
H            13.850000            -9.439677             0.085966
H            15.100000            -7.274613             0.080206
C            -2.800000             0.000000             0.012453
C            -3.500000            -1.212436             0.028479
C            -2.800000            -2.424871             0.033936
C            -1.400000            -2.424871             0.018233
H            -3.350000             0.952628             0.080708
C            -0.700000            -3.637307             0.012211
C             0.700000            -3.637307             0.036700
C             1.400000            -4.849742             0.066367
C             2.800000            -4.849742             0.070478
C             3.500000            -6.062178             0.011775
C             4.900000            -6.062178             0.076409
C             5.600000            -7.274613             0.082241
C             7.000000            -7.274613             0.060675
C             7.700000            -8.487049             0.096900
C             9.100000            -8.487049             0.072269
C             9.800000            -9.699485             0.010626
C            11.200000            -9.699485             0.022013
H            11.750000           -10.652112             0.052609
C            -4.900000            -1.212436             0.022265
C            -5.600000            -2.424871             0.015316
C            -4.900000            -3.637307             0.057578
C            -3.500000            -3.637307             0.013077
H            -5.450000            -0.259808             0.065910
C            -2.800000            -4.849742             0.028959
C            -1.400000            -4.849742             0.038181
C            -0.700000            -6.062178             0.028907
C             0.700000            -6.062178             0.068104
C             1.400000            -7.274613             0.055729
C             2.800000            -7.274613             0.087066
C             3.500000            -8.487049             0.068579
C             4.900000            -8.487049             0.045082
C             5.600000            -9.699485             0.083531
C             7.000000            -9.699485             0.048692
C             7.700000           -10.911920             0.089487
C             9.100000           -10.911920             0.074225
H             9.650000           -11.864548             0.041787
C            -7.000000            -2.424871             0.010858
C            -7.700000            -3.637307             0.065382
C            -7.000000            -4.849742             0.069962
C            -5.600000            -4.849742             0.090861
H            -7.550000            -1.472243             0.000180
C            -4.900000            -6.062178             0.057541
C            -3.500000            -6.062178             0.054441
B            -2.800000            -7.274613             0.079355
N            -1.400000            -7.274613             0.020944
C            -0.700000            -8.487049             0.051973
C             0.700000            -8.487049             0.015553
C             1.400000            -9.699485             0.019263
C             2.800000            -9.699485             0.064860
C             3.500000           -10.911920             0.021542
C             4.900000           -10.911920             0.088959
C             5.600000           -12.124356             0.025969
C             7.000000           -12.124356             0.052376
H             7.550000           -13.076984             0.025477
C            -9.100000            -3.637307             0.071346
C            -9.800000            -4.849742             0.036234
C            -9.100000            -6.062178             0.035298
C            -7.700000            -6.062178             0.080126
H            -9.650000            -2.684679             0.093471
C            -7.000000            -7.274613             0.062129
C            -5.600000            -7.274613             0.074726
C            -4.900000            -8.487049             0.015216
C            -3.500000            -8.487049             0.044894
C            -2.800000            -9.699485             0.015813
C            -1.400000            -9.699485             0.030976
C            -0.700000           -10.911920             0.013077
C             0.700000           -10.911920             0.049085
C             1.400000           -12.124356             0.016940
C             2.800000           -12.124356             0.096222
C             3.500000           -13.336791             0.056187
C             4.900000           -13.336791             0.071687
H             5.450000           -14.289419             0.026988
C           -11.200000            -4.849742             0.033801
C           -11.900000            -6.062178             0.012171
C           -11.200000            -7.274613             0.038774
C            -9.800000            -7.274613             0.051154
H           -11.750000            -3.897114             0.070605
C            -9.100000            -8.487049             0.057956
C            -7.700000            -8.487049             0.017339
C            -7.000000            -9.699485             0.021795
C            -5.600000            -9.699485             0.086160
C            -4.900000           -10.911920             0.095348
C            -3.500000           -10.911920             0.087936
C            -2.800000           -12.124356             0.001167
C            -1.400000           -12.124356             0.089121
C            -0.700000           -13.336791             0.073015
C             0.700000           -13.336791             0.010989
C             1.400000           -14.549227             0.069759
C             2.800000           -14.549227             0.091831
H             3.350000           -15.501855             0.077432
C           -13.300000            -6.062178             0.077258
C           -14.000000            -7.274613             0.056435
C           -13.300000            -8.487049             0.056923
C           -11.900000            -8.487049             0.025154
H           -13.850000            -5.109550             0.082526
H           -15.100000            -7.274613             0.025037
H           -13.850000            -9.439677             0.096792
C           -11.200000            -9.699485             0.094744
C            -9.800000            -9.699485             0.075984
H           -11.750000           -10.652112             0.060740
C            -9.100000           -10.911920             0.046687
C            -7.700000           -10.911920             0.084140
H            -9.650000           -11.864548             0.035616
C            -7.000000           -12.124356             0.009069
C            -5.600000           -12.124356             0.025657
H            -7.550000           -13.076984             0.071367
C            -4.900000           -13.336791             0.022879
C            -3.500000           -13.336791             0.042428
H            -5.450000           -14.289419             0.019716
C            -2.800000           -14.549227             0.077374
C            -1.400000           -14.549227             0.030055
H            -3.350000           -15.501855             0.010120
C            -0.700000           -15.761662             0.047873
C             0.700000           -15.761662             0.058780
H            -1.250000           -16.714290             0.035097
H             1.250000           -16.714290             0.027408
