156
isomero_11_18
C             0.700000             1.212436             0.014529
C            -0.700000             1.212436             0.035274
C            -1.400000             0.000000             0.042536
C            -0.700000            -1.212436             0.087181
C             0.700000            -1.212436             0.014658
C             1.400000            -0.000000             0.061582
H             1.250000             2.165064             0.054048
H            -1.250000             2.165064             0.004898
C             2.800000             0.000000             0.085991
C             1.400000            -2.424871             0.001663
C             2.800000            -2.424871             0.091895
C             3.500000            -1.212436             0.014477
H             3.350000             0.952628             0.006323
C             4.900000            -1.212436             0.068655
C             3.500000            -3.637307             0.099607
C             4.900000            -3.637307             0.067747
C             5.600000            -2.424871             0.073193
H             5.450000            -0.259808             0.092011
C             7.000000            -2.424871             0.017378
C             5.600000            -4.849742             0.015149
C             7.000000            -4.849742             0.046806
C             7.700000            -3.637307             0.024708
H             7.550000            -1.472243             0.040548
C             9.100000            -3.637307             0.029315
C             7.700000            -6.062178             0.091792
C             9.100000            -6.062178             0.084250
C             9.800000            -4.849742             0.018574
H             9.650000            -2.684679             0.056226
C            11.200000            -4.849742             0.036050
C             9.800000            -7.274613             0.041669
C            11.200000            -7.274613             0.000169
C            11.900000            -6.062178             0.025613
H            11.750000            -3.897114             0.001806
C            13.300000            -6.062178             0.014572
C            11.900000            -8.487049             0.054308
C            13.300000            -8.487049             0.029034
C            14.000000            -7.274613             0.035089
H            13.850000            -5.109550             0.073720
H            13.850000            -9.439677             0.045591
H            15.100000            -7.274613             0.058410
C            -2.800000             0.000000             0.035714
B            -3.500000            -1.212436             0.098838
N            -2.800000            -2.424871             0.058341
C            -1.400000            -2.424871             0.077404
H            -3.350000             0.952628             0.087573
C            -0.700000            -3.637307             0.007961
C             0.700000            -3.637307             0.033764
C             1.400000            -4.849742             0.053183
C             2.800000            -4.849742             0.037097
C             3.500000            -6.062178             0.063033
C             4.900000            -6.062178             0.063518
C             5.600000            -7.274613             0.091414
C             7.000000            -7.274613             0.041843
C             7.700000            -8.487049             0.050114
C             9.100000            -8.487049             0.050706
C             9.800000            -9.699485             0.057514
C            11.200000            -9.699485             0.094860
H            11.750000           -10.652112             0.049299
C            -4.900000            -1.212436             0.017381
C            -5.600000            -2.424871             0.089167
C            -4.900000            -3.637307             0.000364
C            -3.500000            -3.637307             0.010728
H            -5.450000            -0.259808             0.057193
C            -2.800000            -4.849742             0.041343
C            -1.400000            -4.849742             0.015852
C            -0.700000            -6.062178             0.085891
C             0.700000            -6.062178             0.055605
C             1.400000            -7.274613             0.023219
C             2.800000            -7.274613             0.045070
C             3.500000            -8.487049             0.001117
C             4.900000            -8.487049             0.062087
C             5.600000            -9.699485             0.076475
C             7.000000            -9.699485             0.096602
C             7.700000           -10.911920             0.018176
C             9.100000           -10.911920             0.057666
H             9.650000           -11.864548             0.077700
C            -7.000000            -2.424871             0.032280
C            -7.700000            -3.637307             0.000106
C            -7.000000            -4.849742             0.051504
C            -5.600000            -4.849742             0.052101
H            -7.550000            -1.472243             0.024396
C            -4.900000            -6.062178             0.040473
C            -3.500000            -6.062178             0.008169
C            -2.800000            -7.274613             0.027283
C            -1.400000            -7.274613             0.087165
C            -0.700000            -8.487049             0.023995
C             0.700000            -8.487049             0.012455
C             1.400000            -9.699485             0.056196
C             2.800000            -9.699485             0.015519
C             3.500000           -10.911920             0.078315
C             4.900000           -10.911920             0.000617
C             5.600000           -12.124356             0.053264
C             7.000000           -12.124356             0.046904
H             7.550000           -13.076984             0.078946
C            -9.100000            -3.637307             0.082766
C            -9.800000            -4.849742             0.095876
C            -9.100000            -6.062178             0.020556
C            -7.700000            -6.062178             0.001633
H            -9.650000            -2.684679             0.040676
C            -7.000000            -7.274613             0.012908
C            -5.600000            -7.274613             0.095876
C            -4.900000            -8.487049             0.040184
C            -3.500000            -8.487049             0.026607
C            -2.800000            -9.699485             0.029659
C            -1.400000            -9.699485             0.059217
C            -0.700000           -10.911920             0.036536
C             0.700000           -10.911920             0.008003
C             1.400000           -12.124356             0.024968
C             2.800000           -12.124356             0.048827
C             3.500000           -13.336791             0.005990
C             4.900000           -13.336791             0.046626
H             5.450000           -14.289419             0.015517
C           -11.200000            -4.849742             0.010910
C           -11.900000            -6.062178             0.094177
C           -11.200000            -7.274613             0.015530
C            -9.800000            -7.274613             0.001913
H           -11.750000            -3.897114             0.073908
C            -9.100000            -8.487049             0.055055
C            -7.700000            -8.487049             0.003289
C            -7.000000            -9.699485             0.064863
C            -5.600000            -9.699485             0.029641
C            -4.900000           -10.911920             0.022306
C            -3.500000           -10.911920             0.063197
C            -2.800000           -12.124356             0.013105
C            -1.400000           -12.124356             0.024007
C            -0.700000           -13.336791             0.011534
C             0.700000           -13.336791             0.005791
C             1.400000           -14.549227             0.003427
C             2.800000           -14.549227             0.023289
H             3.350000           -15.501855             0.030291
C           -13.300000            -6.062178             0.042752
C           -14.000000            -7.274613             0.073686
C           -13.300000            -8.487049             0.022784
C           -11.900000            -8.487049             0.013432
H           -13.850000            -5.109550             0.043993
H           -15.100000            -7.274613             0.051551
H           -13.850000            -9.439677             0.049471
C           -11.200000            -9.699485             0.006507
C            -9.800000            -9.699485             0.092910
H           -11.750000           -10.652112             0.026089
C            -9.100000           -10.911920             0.042731
C            -7.700000           -10.911920             0.016299
H            -9.650000           -11.864548             0.078666
C            -7.000000           -12.124356             0.051761
C            -5.600000           -12.124356             0.012212
H            -7.550000           -13.076984             0.077647
C            -4.900000           -13.336791             0.008325
C            -3.500000           -13.336791             0.018038
H            -5.450000           -14.289419             0.011548
C            -2.800000           -14.549227             0.050950
C            -1.400000           -14.549227             0.036881
H            -3.350000           -15.501855             0.016297
C            -0.700000           -15.761662             0.048713
C             0.700000           -15.761662             0.096547
H            -1.250000           -16.714290             0.098102
H             1.250000           -16.714290             0.066924
