156
isomero_27_38
C             0.700000             1.212436             0.036975
C            -0.700000             1.212436             0.082709
C            -1.400000             0.000000             0.072823
C            -0.700000            -1.212436             0.081601
C             0.700000            -1.212436             0.066719
C             1.400000            -0.000000             0.075091
H             1.250000             2.165064             0.077220
H            -1.250000             2.165064             0.048849
C             2.800000             0.000000             0.036826
C             1.400000            -2.424871             0.077558
C             2.800000            -2.424871             0.066767
C             3.500000            -1.212436             0.032303
H             3.350000             0.952628             0.030218
C             4.900000            -1.212436             0.084156
C             3.500000            -3.637307             0.077693
C             4.900000            -3.637307             0.033358
C             5.600000            -2.424871             0.026752
H             5.450000            -0.259808             0.099288
C             7.000000            -2.424871             0.058364
C             5.600000            -4.849742             0.099432
C             7.000000            -4.849742             0.072676
C             7.700000            -3.637307             0.008689
H             7.550000            -1.472243             0.042541
C             9.100000            -3.637307             0.031104
C             7.700000            -6.062178             0.081836
C             9.100000            -6.062178             0.096200
C             9.800000            -4.849742             0.038111
H             9.650000            -2.684679             0.099143
C            11.200000            -4.849742             0.028569
C             9.800000            -7.274613             0.043521
C            11.200000            -7.274613             0.045528
C            11.900000            -6.062178             0.042200
H            11.750000            -3.897114             0.084539
C            13.300000            -6.062178             0.040088
C            11.900000            -8.487049             0.054174
C            13.300000            -8.487049             0.035795
C            14.000000            -7.274613             0.035989
H            13.850000            -5.109550             0.092759
H            13.850000            -9.439677             0.085477
H            15.100000            -7.274613             0.060574
C            -2.800000             0.000000             0.040247
C            -3.500000            -1.212436             0.046828
C            -2.800000            -2.424871             0.026332
C            -1.400000            -2.424871             0.063348
H            -3.350000             0.952628             0.053604
C            -0.700000            -3.637307             0.008453
C             0.700000            -3.637307             0.022944
C             1.400000            -4.849742             0.073441
C             2.800000            -4.849742             0.097112
C             3.500000            -6.062178             0.012433
C             4.900000            -6.062178             0.013361
C             5.600000            -7.274613             0.065719
C             7.000000            -7.274613             0.071430
C             7.700000            -8.487049             0.034935
C             9.100000            -8.487049             0.024721
C             9.800000            -9.699485             0.063095
C            11.200000            -9.699485             0.091760
H            11.750000           -10.652112             0.021811
C            -4.900000            -1.212436             0.063445
C            -5.600000            -2.424871             0.004565
C            -4.900000            -3.637307             0.081542
B            -3.500000            -3.637307             0.043311
H            -5.450000            -0.259808             0.003935
N            -2.800000            -4.849742             0.053232
C            -1.400000            -4.849742             0.028002
C            -0.700000            -6.062178             0.053687
C             0.700000            -6.062178             0.018450
C             1.400000            -7.274613             0.096855
C             2.800000            -7.274613             0.034083
C             3.500000            -8.487049             0.076708
C             4.900000            -8.487049             0.099052
C             5.600000            -9.699485             0.054631
C             7.000000            -9.699485             0.020490
C             7.700000           -10.911920             0.025174
C             9.100000           -10.911920             0.092266
H             9.650000           -11.864548             0.096012
C            -7.000000            -2.424871             0.022320
C            -7.700000            -3.637307             0.088386
C            -7.000000            -4.849742             0.002492
C            -5.600000            -4.849742             0.073410
H            -7.550000            -1.472243             0.050652
C            -4.900000            -6.062178             0.079006
C            -3.500000            -6.062178             0.014472
C            -2.800000            -7.274613             0.042290
C            -1.400000            -7.274613             0.062242
C            -0.700000            -8.487049             0.010100
C             0.700000            -8.487049             0.021496
C             1.400000            -9.699485             0.098956
C             2.800000            -9.699485             0.096089
C             3.500000           -10.911920             0.065452
C             4.900000           -10.911920             0.078749
C             5.600000           -12.124356             0.057052
C             7.000000           -12.124356             0.085202
H             7.550000           -13.076984             0.051537
C            -9.100000            -3.637307             0.081309
C            -9.800000            -4.849742             0.022094
C            -9.100000            -6.062178             0.014914
C            -7.700000            -6.062178             0.057664
H            -9.650000            -2.684679             0.006412
C            -7.000000            -7.274613             0.030432
C            -5.600000            -7.274613             0.043839
C            -4.900000            -8.487049             0.063926
C            -3.500000            -8.487049             0.025508
C            -2.800000            -9.699485             0.050681
C            -1.400000            -9.699485             0.083514
C            -0.700000           -10.911920             0.063880
C             0.700000           -10.911920             0.005189
C             1.400000           -12.124356             0.087494
C             2.800000           -12.124356             0.055487
C             3.500000           -13.336791             0.082296
C             4.900000           -13.336791             0.042474
H             5.450000           -14.289419             0.019989
C           -11.200000            -4.849742             0.016052
C           -11.900000            -6.062178             0.018852
C           -11.200000            -7.274613             0.099285
C            -9.800000            -7.274613             0.024430
H           -11.750000            -3.897114             0.003895
C            -9.100000            -8.487049             0.014433
C            -7.700000            -8.487049             0.092559
C            -7.000000            -9.699485             0.030081
C            -5.600000            -9.699485             0.043545
C            -4.900000           -10.911920             0.051097
C            -3.500000           -10.911920             0.066722
C            -2.800000           -12.124356             0.017802
C            -1.400000           -12.124356             0.018902
C            -0.700000           -13.336791             0.090576
C             0.700000           -13.336791             0.008732
C             1.400000           -14.549227             0.064733
C             2.800000           -14.549227             0.079284
H             3.350000           -15.501855             0.081570
C           -13.300000            -6.062178             0.039857
C           -14.000000            -7.274613             0.080778
C           -13.300000            -8.487049             0.028434
C           -11.900000            -8.487049             0.064095
H           -13.850000            -5.109550             0.093962
H           -15.100000            -7.274613             0.075559
H           -13.850000            -9.439677             0.056855
C           -11.200000            -9.699485             0.042301
C            -9.800000            -9.699485             0.060210
H           -11.750000           -10.652112             0.066102
C            -9.100000           -10.911920             0.014803
C            -7.700000           -10.911920             0.052570
H            -9.650000           -11.864548             0.095806
C            -7.000000           -12.124356             0.023689
C            -5.600000           -12.124356             0.080760
H            -7.550000           -13.076984             0.007805
C            -4.900000           -13.336791             0.007609
C            -3.500000           -13.336791             0.064069
H            -5.450000           -14.289419             0.025568
C            -2.800000           -14.549227             0.027956
C            -1.400000           -14.549227             0.013155
H            -3.350000           -15.501855             0.027843
C            -0.700000           -15.761662             0.090590
C             0.700000           -15.761662             0.002956
H            -1.250000           -16.714290             0.014416
H             1.250000           -16.714290             0.084027
