156
isomero_39_28
C             0.700000             1.212436             0.017337
C            -0.700000             1.212436             0.020449
C            -1.400000             0.000000             0.098440
C            -0.700000            -1.212436             0.030004
C             0.700000            -1.212436             0.043672
C             1.400000            -0.000000             0.015421
H             1.250000             2.165064             0.035832
H            -1.250000             2.165064             0.075208
C             2.800000             0.000000             0.022721
C             1.400000            -2.424871             0.092859
C             2.800000            -2.424871             0.082493
C             3.500000            -1.212436             0.095884
H             3.350000             0.952628             0.079620
C             4.900000            -1.212436             0.089804
C             3.500000            -3.637307             0.075786
C             4.900000            -3.637307             0.001182
C             5.600000            -2.424871             0.006755
H             5.450000            -0.259808             0.021948
C             7.000000            -2.424871             0.099495
C             5.600000            -4.849742             0.093922
C             7.000000            -4.849742             0.083261
C             7.700000            -3.637307             0.036229
H             7.550000            -1.472243             0.036148
C             9.100000            -3.637307             0.084796
C             7.700000            -6.062178             0.019994
C             9.100000            -6.062178             0.047213
C             9.800000            -4.849742             0.028057
H             9.650000            -2.684679             0.036697
C            11.200000            -4.849742             0.005363
C             9.800000            -7.274613             0.048446
C            11.200000            -7.274613             0.059492
C            11.900000            -6.062178             0.047313
H            11.750000            -3.897114             0.065181
C            13.300000            -6.062178             0.006938
C            11.900000            -8.487049             0.056025
C            13.300000            -8.487049             0.085242
C            14.000000            -7.274613             0.048350
H            13.850000            -5.109550             0.094272
H            13.850000            -9.439677             0.084397
H            15.100000            -7.274613             0.089037
C            -2.800000             0.000000             0.016518
C            -3.500000            -1.212436             0.018024
C            -2.800000            -2.424871             0.022894
C            -1.400000            -2.424871             0.068726
H            -3.350000             0.952628             0.072680
C            -0.700000            -3.637307             0.083698
C             0.700000            -3.637307             0.028198
C             1.400000            -4.849742             0.072193
C             2.800000            -4.849742             0.029599
C             3.500000            -6.062178             0.086378
C             4.900000            -6.062178             0.092411
C             5.600000            -7.274613             0.065734
C             7.000000            -7.274613             0.026604
C             7.700000            -8.487049             0.091537
C             9.100000            -8.487049             0.045311
C             9.800000            -9.699485             0.037864
C            11.200000            -9.699485             0.084784
H            11.750000           -10.652112             0.087800
C            -4.900000            -1.212436             0.025989
C            -5.600000            -2.424871             0.032704
N            -4.900000            -3.637307             0.095805
C            -3.500000            -3.637307             0.072281
H            -5.450000            -0.259808             0.020905
C            -2.800000            -4.849742             0.065878
C            -1.400000            -4.849742             0.009612
C            -0.700000            -6.062178             0.090284
C             0.700000            -6.062178             0.058229
C             1.400000            -7.274613             0.051081
C             2.800000            -7.274613             0.012537
C             3.500000            -8.487049             0.037183
C             4.900000            -8.487049             0.023653
C             5.600000            -9.699485             0.093530
C             7.000000            -9.699485             0.068975
C             7.700000           -10.911920             0.027759
C             9.100000           -10.911920             0.091585
H             9.650000           -11.864548             0.047725
C            -7.000000            -2.424871             0.050676
C            -7.700000            -3.637307             0.093087
C            -7.000000            -4.849742             0.049334
B            -5.600000            -4.849742             0.025768
H            -7.550000            -1.472243             0.028936
C            -4.900000            -6.062178             0.072390
C            -3.500000            -6.062178             0.009244
C            -2.800000            -7.274613             0.055193
C            -1.400000            -7.274613             0.096812
C            -0.700000            -8.487049             0.025894
C             0.700000            -8.487049             0.029941
C             1.400000            -9.699485             0.029358
C             2.800000            -9.699485             0.010554
C             3.500000           -10.911920             0.045469
C             4.900000           -10.911920             0.079734
C             5.600000           -12.124356             0.063654
C             7.000000           -12.124356             0.093422
H             7.550000           -13.076984             0.013109
C            -9.100000            -3.637307             0.009078
C            -9.800000            -4.849742             0.058580
C            -9.100000            -6.062178             0.064972
C            -7.700000            -6.062178             0.086126
H            -9.650000            -2.684679             0.016914
C            -7.000000            -7.274613             0.033138
C            -5.600000            -7.274613             0.070436
C            -4.900000            -8.487049             0.020111
C            -3.500000            -8.487049             0.038973
C            -2.800000            -9.699485             0.049873
C            -1.400000            -9.699485             0.043737
C            -0.700000           -10.911920             0.017721
C             0.700000           -10.911920             0.088725
C             1.400000           -12.124356             0.082755
C             2.800000           -12.124356             0.048176
C             3.500000           -13.336791             0.053241
C             4.900000           -13.336791             0.080799
H             5.450000           -14.289419             0.076505
C           -11.200000            -4.849742             0.026508
C           -11.900000            -6.062178             0.041994
C           -11.200000            -7.274613             0.063220
C            -9.800000            -7.274613             0.048902
H           -11.750000            -3.897114             0.086052
C            -9.100000            -8.487049             0.001905
C            -7.700000            -8.487049             0.030771
C            -7.000000            -9.699485             0.006138
C            -5.600000            -9.699485             0.095174
C            -4.900000           -10.911920             0.040190
C            -3.500000           -10.911920             0.013463
C            -2.800000           -12.124356             0.016461
C            -1.400000           -12.124356             0.013890
C            -0.700000           -13.336791             0.065672
C             0.700000           -13.336791             0.007250
C             1.400000           -14.549227             0.039740
C             2.800000           -14.549227             0.083719
H             3.350000           -15.501855             0.000813
C           -13.300000            -6.062178             0.020163
C           -14.000000            -7.274613             0.081554
C           -13.300000            -8.487049             0.052678
C           -11.900000            -8.487049             0.054252
H           -13.850000            -5.109550             0.090214
H           -15.100000            -7.274613             0.091879
H           -13.850000            -9.439677             0.012633
C           -11.200000            -9.699485             0.013341
C            -9.800000            -9.699485             0.079435
H           -11.750000           -10.652112             0.067307
C            -9.100000           -10.911920             0.090527
C            -7.700000           -10.911920             0.070900
H            -9.650000           -11.864548             0.003943
C            -7.000000           -12.124356             0.050943
C            -5.600000           -12.124356             0.091551
H            -7.550000           -13.076984             0.011835
C            -4.900000           -13.336791             0.089715
C            -3.500000           -13.336791             0.064594
H            -5.450000           -14.289419             0.013879
C            -2.800000           -14.549227             0.005204
C            -1.400000           -14.549227             0.054097
H            -3.350000           -15.501855             0.059352
C            -0.700000           -15.761662             0.042276
C             0.700000           -15.761662             0.074867
H            -1.250000           -16.714290             0.041043
H             1.250000           -16.714290             0.060134
