156
isomero_55_69
C             0.700000             1.212436             0.065508
C            -0.700000             1.212436             0.019265
C            -1.400000             0.000000             0.040242
C            -0.700000            -1.212436             0.014166
C             0.700000            -1.212436             0.060721
C             1.400000            -0.000000             0.073605
H             1.250000             2.165064             0.003005
H            -1.250000             2.165064             0.078579
C             2.800000             0.000000             0.014826
C             1.400000            -2.424871             0.041105
C             2.800000            -2.424871             0.073060
C             3.500000            -1.212436             0.057615
H             3.350000             0.952628             0.085773
C             4.900000            -1.212436             0.058863
C             3.500000            -3.637307             0.098860
C             4.900000            -3.637307             0.058365
C             5.600000            -2.424871             0.061438
H             5.450000            -0.259808             0.084710
C             7.000000            -2.424871             0.020129
C             5.600000            -4.849742             0.075433
C             7.000000            -4.849742             0.000416
C             7.700000            -3.637307             0.001346
H             7.550000            -1.472243             0.010839
C             9.100000            -3.637307             0.024375
C             7.700000            -6.062178             0.045968
C             9.100000            -6.062178             0.020184
C             9.800000            -4.849742             0.085743
H             9.650000            -2.684679             0.067642
C            11.200000            -4.849742             0.032953
C             9.800000            -7.274613             0.053017
C            11.200000            -7.274613             0.049102
C            11.900000            -6.062178             0.023975
H            11.750000            -3.897114             0.036528
C            13.300000            -6.062178             0.033603
C            11.900000            -8.487049             0.016720
C            13.300000            -8.487049             0.047226
C            14.000000            -7.274613             0.094849
H            13.850000            -5.109550             0.020546
H            13.850000            -9.439677             0.005786
H            15.100000            -7.274613             0.027660
C            -2.800000             0.000000             0.078672
C            -3.500000            -1.212436             0.084147
C            -2.800000            -2.424871             0.052978
C            -1.400000            -2.424871             0.002781
H            -3.350000             0.952628             0.072568
C            -0.700000            -3.637307             0.073995
C             0.700000            -3.637307             0.078778
C             1.400000            -4.849742             0.046683
C             2.800000            -4.849742             0.098874
C             3.500000            -6.062178             0.030973
C             4.900000            -6.062178             0.022528
C             5.600000            -7.274613             0.069570
C             7.000000            -7.274613             0.093216
C             7.700000            -8.487049             0.053600
C             9.100000            -8.487049             0.044600
C             9.800000            -9.699485             0.022424
C            11.200000            -9.699485             0.058308
H            11.750000           -10.652112             0.007643
C            -4.900000            -1.212436             0.005242
C            -5.600000            -2.424871             0.020769
C            -4.900000            -3.637307             0.093975
C            -3.500000            -3.637307             0.097761
H            -5.450000            -0.259808             0.046802
C            -2.800000            -4.849742             0.018506
C            -1.400000            -4.849742             0.085684
C            -0.700000            -6.062178             0.096915
C             0.700000            -6.062178             0.058196
C             1.400000            -7.274613             0.043747
C             2.800000            -7.274613             0.047136
C             3.500000            -8.487049             0.067528
C             4.900000            -8.487049             0.021350
C             5.600000            -9.699485             0.037328
C             7.000000            -9.699485             0.026002
C             7.700000           -10.911920             0.045622
C             9.100000           -10.911920             0.015403
H             9.650000           -11.864548             0.063366
C            -7.000000            -2.424871             0.032888
C            -7.700000            -3.637307             0.053947
C            -7.000000            -4.849742             0.085606
C            -5.600000            -4.849742             0.080024
H            -7.550000            -1.472243             0.060946
C            -4.900000            -6.062178             0.075432
C            -3.500000            -6.062178             0.073039
C            -2.800000            -7.274613             0.025265
C            -1.400000            -7.274613             0.064900
C            -0.700000            -8.487049             0.018536
C             0.700000            -8.487049             0.065400
C             1.400000            -9.699485             0.090035
C             2.800000            -9.699485             0.033018
C             3.500000           -10.911920             0.079761
C             4.900000           -10.911920             0.053651
C             5.600000           -12.124356             0.053227
C             7.000000           -12.124356             0.017266
H             7.550000           -13.076984             0.070477
C            -9.100000            -3.637307             0.004357
C            -9.800000            -4.849742             0.056104
C            -9.100000            -6.062178             0.079897
C            -7.700000            -6.062178             0.053499
H            -9.650000            -2.684679             0.065205
C            -7.000000            -7.274613             0.026664
C            -5.600000            -7.274613             0.001066
C            -4.900000            -8.487049             0.086613
C            -3.500000            -8.487049             0.051665
C            -2.800000            -9.699485             0.049976
C            -1.400000            -9.699485             0.059247
C            -0.700000           -10.911920             0.082310
C             0.700000           -10.911920             0.044696
C             1.400000           -12.124356             0.050671
C             2.800000           -12.124356             0.092909
C             3.500000           -13.336791             0.042534
C             4.900000           -13.336791             0.039275
H             5.450000           -14.289419             0.011816
C           -11.200000            -4.849742             0.007504
B           -11.900000            -6.062178             0.018764
N           -11.200000            -7.274613             0.025041
C            -9.800000            -7.274613             0.094650
H           -11.750000            -3.897114             0.005053
C            -9.100000            -8.487049             0.093628
C            -7.700000            -8.487049             0.014042
C            -7.000000            -9.699485             0.056436
C            -5.600000            -9.699485             0.015670
C            -4.900000           -10.911920             0.087365
C            -3.500000           -10.911920             0.013713
C            -2.800000           -12.124356             0.054179
C            -1.400000           -12.124356             0.049568
C            -0.700000           -13.336791             0.048442
C             0.700000           -13.336791             0.098074
C             1.400000           -14.549227             0.046610
C             2.800000           -14.549227             0.097291
H             3.350000           -15.501855             0.081294
C           -13.300000            -6.062178             0.039696
C           -14.000000            -7.274613             0.022730
C           -13.300000            -8.487049             0.043691
C           -11.900000            -8.487049             0.087035
H           -13.850000            -5.109550             0.007905
H           -15.100000            -7.274613             0.081082
H           -13.850000            -9.439677             0.086829
C           -11.200000            -9.699485             0.061245
C            -9.800000            -9.699485             0.031751
H           -11.750000           -10.652112             0.077279
C            -9.100000           -10.911920             0.058528
C            -7.700000           -10.911920             0.037717
H            -9.650000           -11.864548             0.072988
C            -7.000000           -12.124356             0.023310
C            -5.600000           -12.124356             0.060158
H            -7.550000           -13.076984             0.045445
C            -4.900000           -13.336791             0.098002
C            -3.500000           -13.336791             0.023618
H            -5.450000           -14.289419             0.061633
C            -2.800000           -14.549227             0.036345
C            -1.400000           -14.549227             0.014953
H            -3.350000           -15.501855             0.052501
C            -0.700000           -15.761662             0.022072
C             0.700000           -15.761662             0.084307
H            -1.250000           -16.714290             0.093241
H             1.250000           -16.714290             0.025931
