156
isomero_17_10
C             0.700000             1.212436             0.025656
C            -0.700000             1.212436             0.010850
C            -1.400000             0.000000             0.021363
N            -0.700000            -1.212436             0.063983
C             0.700000            -1.212436             0.028019
C             1.400000            -0.000000             0.083611
H             1.250000             2.165064             0.013525
H            -1.250000             2.165064             0.071464
C             2.800000             0.000000             0.022591
C             1.400000            -2.424871             0.035888
C             2.800000            -2.424871             0.019981
C             3.500000            -1.212436             0.011827
H             3.350000             0.952628             0.046210
C             4.900000            -1.212436             0.079113
C             3.500000            -3.637307             0.068218
C             4.900000            -3.637307             0.067571
C             5.600000            -2.424871             0.092184
H             5.450000            -0.259808             0.069715
C             7.000000            -2.424871             0.029040
C             5.600000            -4.849742             0.059155
C             7.000000            -4.849742             0.038829
C             7.700000            -3.637307             0.001401
H             7.550000            -1.472243             0.065071
C             9.100000            -3.637307             0.013672
C             7.700000            -6.062178             0.068168
C             9.100000            -6.062178             0.085541
C             9.800000            -4.849742             0.041174
H             9.650000            -2.684679             0.055936
C            11.200000            -4.849742             0.054325
C             9.800000            -7.274613             0.024899
C            11.200000            -7.274613             0.048433
C            11.900000            -6.062178             0.032224
H            11.750000            -3.897114             0.058270
C            13.300000            -6.062178             0.021293
C            11.900000            -8.487049             0.000998
C            13.300000            -8.487049             0.032016
C            14.000000            -7.274613             0.022641
H            13.850000            -5.109550             0.066796
H            13.850000            -9.439677             0.075775
H            15.100000            -7.274613             0.007582
C            -2.800000             0.000000             0.088546
C            -3.500000            -1.212436             0.046870
C            -2.800000            -2.424871             0.079858
B            -1.400000            -2.424871             0.021685
H            -3.350000             0.952628             0.081460
C            -0.700000            -3.637307             0.003581
C             0.700000            -3.637307             0.061517
C             1.400000            -4.849742             0.078686
C             2.800000            -4.849742             0.007335
C             3.500000            -6.062178             0.056345
C             4.900000            -6.062178             0.016652
C             5.600000            -7.274613             0.010570
C             7.000000            -7.274613             0.080645
C             7.700000            -8.487049             0.047556
C             9.100000            -8.487049             0.058079
C             9.800000            -9.699485             0.033716
C            11.200000            -9.699485             0.011689
H            11.750000           -10.652112             0.035029
C            -4.900000            -1.212436             0.075926
C            -5.600000            -2.424871             0.080831
C            -4.900000            -3.637307             0.043263
C            -3.500000            -3.637307             0.083350
H            -5.450000            -0.259808             0.087845
C            -2.800000            -4.849742             0.044822
C            -1.400000            -4.849742             0.038326
C            -0.700000            -6.062178             0.018231
C             0.700000            -6.062178             0.089626
C             1.400000            -7.274613             0.074948
C             2.800000            -7.274613             0.060689
C             3.500000            -8.487049             0.084522
C             4.900000            -8.487049             0.084152
C             5.600000            -9.699485             0.088204
C             7.000000            -9.699485             0.063919
C             7.700000           -10.911920             0.037186
C             9.100000           -10.911920             0.017422
H             9.650000           -11.864548             0.053346
C            -7.000000            -2.424871             0.019389
C            -7.700000            -3.637307             0.010282
C            -7.000000            -4.849742             0.080731
C            -5.600000            -4.849742             0.076542
H            -7.550000            -1.472243             0.009742
C            -4.900000            -6.062178             0.031084
C            -3.500000            -6.062178             0.091430
C            -2.800000            -7.274613             0.086911
C            -1.400000            -7.274613             0.060928
C            -0.700000            -8.487049             0.045685
C             0.700000            -8.487049             0.003042
C             1.400000            -9.699485             0.043548
C             2.800000            -9.699485             0.073568
C             3.500000           -10.911920             0.078141
C             4.900000           -10.911920             0.082693
C             5.600000           -12.124356             0.067762
C             7.000000           -12.124356             0.082278
H             7.550000           -13.076984             0.027908
C            -9.100000            -3.637307             0.064231
C            -9.800000            -4.849742             0.073155
C            -9.100000            -6.062178             0.078727
C            -7.700000            -6.062178             0.055436
H            -9.650000            -2.684679             0.025710
C            -7.000000            -7.274613             0.069252
C            -5.600000            -7.274613             0.073350
C            -4.900000            -8.487049             0.084564
C            -3.500000            -8.487049             0.024855
C            -2.800000            -9.699485             0.087048
C            -1.400000            -9.699485             0.044801
C            -0.700000           -10.911920             0.015576
C             0.700000           -10.911920             0.041590
C             1.400000           -12.124356             0.091432
C             2.800000           -12.124356             0.042092
C             3.500000           -13.336791             0.026846
C             4.900000           -13.336791             0.054301
H             5.450000           -14.289419             0.004818
C           -11.200000            -4.849742             0.073715
C           -11.900000            -6.062178             0.081873
C           -11.200000            -7.274613             0.020155
C            -9.800000            -7.274613             0.085177
H           -11.750000            -3.897114             0.072570
C            -9.100000            -8.487049             0.047099
C            -7.700000            -8.487049             0.039426
C            -7.000000            -9.699485             0.018407
C            -5.600000            -9.699485             0.075232
C            -4.900000           -10.911920             0.004607
C            -3.500000           -10.911920             0.008196
C            -2.800000           -12.124356             0.003631
C            -1.400000           -12.124356             0.044598
C            -0.700000           -13.336791             0.051222
C             0.700000           -13.336791             0.026316
C             1.400000           -14.549227             0.096339
C             2.800000           -14.549227             0.085939
H             3.350000           -15.501855             0.032179
C           -13.300000            -6.062178             0.098301
C           -14.000000            -7.274613             0.026435
C           -13.300000            -8.487049             0.069723
C           -11.900000            -8.487049             0.098986
H           -13.850000            -5.109550             0.023877
H           -15.100000            -7.274613             0.032704
H           -13.850000            -9.439677             0.000821
C           -11.200000            -9.699485             0.091022
C            -9.800000            -9.699485             0.010877
H           -11.750000           -10.652112             0.062406
C            -9.100000           -10.911920             0.084503
C            -7.700000           -10.911920             0.065090
H            -9.650000           -11.864548             0.099632
C            -7.000000           -12.124356             0.011921
C            -5.600000           -12.124356             0.005471
H            -7.550000           -13.076984             0.051366
C            -4.900000           -13.336791             0.011984
C            -3.500000           -13.336791             0.063791
H            -5.450000           -14.289419             0.009910
C            -2.800000           -14.549227             0.064346
C            -1.400000           -14.549227             0.051209
H            -3.350000           -15.501855             0.062637
C            -0.700000           -15.761662             0.052095
C             0.700000           -15.761662             0.097276
H            -1.250000           -16.714290             0.070045
H             1.250000           -16.714290             0.070519
