156
isomero_19_20
C             0.700000             1.212436             0.071672
C            -0.700000             1.212436             0.050423
C            -1.400000             0.000000             0.052293
C            -0.700000            -1.212436             0.071536
C             0.700000            -1.212436             0.079006
C             1.400000            -0.000000             0.052524
H             1.250000             2.165064             0.034699
H            -1.250000             2.165064             0.058894
C             2.800000             0.000000             0.052914
C             1.400000            -2.424871             0.043778
C             2.800000            -2.424871             0.090426
C             3.500000            -1.212436             0.068770
H             3.350000             0.952628             0.028777
C             4.900000            -1.212436             0.016360
C             3.500000            -3.637307             0.021889
C             4.900000            -3.637307             0.053069
C             5.600000            -2.424871             0.094237
H             5.450000            -0.259808             0.017101
C             7.000000            -2.424871             0.085486
C             5.600000            -4.849742             0.018406
C             7.000000            -4.849742             0.052143
C             7.700000            -3.637307             0.060803
H             7.550000            -1.472243             0.039647
C             9.100000            -3.637307             0.017871
C             7.700000            -6.062178             0.003299
C             9.100000            -6.062178             0.014236
C             9.800000            -4.849742             0.020470
H             9.650000            -2.684679             0.072275
C            11.200000            -4.849742             0.061235
C             9.800000            -7.274613             0.047929
C            11.200000            -7.274613             0.051248
C            11.900000            -6.062178             0.000513
H            11.750000            -3.897114             0.035018
C            13.300000            -6.062178             0.082684
C            11.900000            -8.487049             0.025790
C            13.300000            -8.487049             0.063670
C            14.000000            -7.274613             0.068016
H            13.850000            -5.109550             0.025819
H            13.850000            -9.439677             0.006289
H            15.100000            -7.274613             0.081797
C            -2.800000             0.000000             0.061071
C            -3.500000            -1.212436             0.015971
C            -2.800000            -2.424871             0.007326
C            -1.400000            -2.424871             0.012655
H            -3.350000             0.952628             0.049455
C            -0.700000            -3.637307             0.084782
C             0.700000            -3.637307             0.050224
C             1.400000            -4.849742             0.091838
C             2.800000            -4.849742             0.075084
C             3.500000            -6.062178             0.070845
C             4.900000            -6.062178             0.036128
C             5.600000            -7.274613             0.076477
C             7.000000            -7.274613             0.084401
C             7.700000            -8.487049             0.025454
C             9.100000            -8.487049             0.090126
C             9.800000            -9.699485             0.024111
C            11.200000            -9.699485             0.064530
H            11.750000           -10.652112             0.055288
C            -4.900000            -1.212436             0.035374
B            -5.600000            -2.424871             0.078305
C            -4.900000            -3.637307             0.094188
C            -3.500000            -3.637307             0.091260
H            -5.450000            -0.259808             0.093734
C            -2.800000            -4.849742             0.053062
C            -1.400000            -4.849742             0.031490
C            -0.700000            -6.062178             0.096574
C             0.700000            -6.062178             0.041819
C             1.400000            -7.274613             0.004098
C             2.800000            -7.274613             0.076129
C             3.500000            -8.487049             0.043813
C             4.900000            -8.487049             0.014311
C             5.600000            -9.699485             0.063625
C             7.000000            -9.699485             0.092094
C             7.700000           -10.911920             0.022641
C             9.100000           -10.911920             0.011720
H             9.650000           -11.864548             0.003350
N            -7.000000            -2.424871             0.075681
C            -7.700000            -3.637307             0.078580
C            -7.000000            -4.849742             0.038079
C            -5.600000            -4.849742             0.055227
H            -7.550000            -1.472243             0.084002
C            -4.900000            -6.062178             0.068846
C            -3.500000            -6.062178             0.075582
C            -2.800000            -7.274613             0.015199
C            -1.400000            -7.274613             0.028868
C            -0.700000            -8.487049             0.074325
C             0.700000            -8.487049             0.053257
C             1.400000            -9.699485             0.011006
C             2.800000            -9.699485             0.034347
C             3.500000           -10.911920             0.040805
C             4.900000           -10.911920             0.062115
C             5.600000           -12.124356             0.051239
C             7.000000           -12.124356             0.025614
H             7.550000           -13.076984             0.073304
C            -9.100000            -3.637307             0.014149
C            -9.800000            -4.849742             0.087941
C            -9.100000            -6.062178             0.072182
C            -7.700000            -6.062178             0.046880
H            -9.650000            -2.684679             0.004965
C            -7.000000            -7.274613             0.007091
C            -5.600000            -7.274613             0.003504
C            -4.900000            -8.487049             0.088080
C            -3.500000            -8.487049             0.099029
C            -2.800000            -9.699485             0.048853
C            -1.400000            -9.699485             0.049783
C            -0.700000           -10.911920             0.052375
C             0.700000           -10.911920             0.000455
C             1.400000           -12.124356             0.008266
C             2.800000           -12.124356             0.011077
C             3.500000           -13.336791             0.020785
C             4.900000           -13.336791             0.017655
H             5.450000           -14.289419             0.057556
C           -11.200000            -4.849742             0.070202
C           -11.900000            -6.062178             0.051957
C           -11.200000            -7.274613             0.070648
C            -9.800000            -7.274613             0.085877
H           -11.750000            -3.897114             0.062597
C            -9.100000            -8.487049             0.011983
C            -7.700000            -8.487049             0.088899
C            -7.000000            -9.699485             0.049752
C            -5.600000            -9.699485             0.011377
C            -4.900000           -10.911920             0.042414
C            -3.500000           -10.911920             0.051992
C            -2.800000           -12.124356             0.096855
C            -1.400000           -12.124356             0.097538
C            -0.700000           -13.336791             0.008282
C             0.700000           -13.336791             0.015844
C             1.400000           -14.549227             0.044307
C             2.800000           -14.549227             0.049601
H             3.350000           -15.501855             0.068496
C           -13.300000            -6.062178             0.091408
C           -14.000000            -7.274613             0.089550
C           -13.300000            -8.487049             0.002528
C           -11.900000            -8.487049             0.005542
H           -13.850000            -5.109550             0.004245
H           -15.100000            -7.274613             0.041036
H           -13.850000            -9.439677             0.079447
C           -11.200000            -9.699485             0.087767
C            -9.800000            -9.699485             0.048299
H           -11.750000           -10.652112             0.032120
C            -9.100000           -10.911920             0.067283
C            -7.700000           -10.911920             0.094877
H            -9.650000           -11.864548             0.011509
C            -7.000000           -12.124356             0.051069
C            -5.600000           -12.124356             0.025045
H            -7.550000           -13.076984             0.021376
C            -4.900000           -13.336791             0.015150
C            -3.500000           -13.336791             0.052645
H            -5.450000           -14.289419             0.066452
C            -2.800000           -14.549227             0.061833
C            -1.400000           -14.549227             0.006210
H            -3.350000           -15.501855             0.001686
C            -0.700000           -15.761662             0.043245
C             0.700000           -15.761662             0.024470
H            -1.250000           -16.714290             0.039052
H             1.250000           -16.714290             0.086591
