156
isomero_67_53
C             0.700000             1.212436             0.096044
C            -0.700000             1.212436             0.032075
C            -1.400000             0.000000             0.079546
C            -0.700000            -1.212436             0.096489
C             0.700000            -1.212436             0.025500
C             1.400000            -0.000000             0.076089
H             1.250000             2.165064             0.009413
H            -1.250000             2.165064             0.012876
C             2.800000             0.000000             0.022538
C             1.400000            -2.424871             0.080296
C             2.800000            -2.424871             0.046771
C             3.500000            -1.212436             0.082908
H             3.350000             0.952628             0.089168
C             4.900000            -1.212436             0.032516
C             3.500000            -3.637307             0.078419
C             4.900000            -3.637307             0.071163
C             5.600000            -2.424871             0.031945
H             5.450000            -0.259808             0.066647
C             7.000000            -2.424871             0.054290
C             5.600000            -4.849742             0.072078
C             7.000000            -4.849742             0.057338
C             7.700000            -3.637307             0.047350
H             7.550000            -1.472243             0.068660
C             9.100000            -3.637307             0.035819
C             7.700000            -6.062178             0.058874
C             9.100000            -6.062178             0.053830
C             9.800000            -4.849742             0.066236
H             9.650000            -2.684679             0.074007
C            11.200000            -4.849742             0.012397
C             9.800000            -7.274613             0.024176
C            11.200000            -7.274613             0.073424
C            11.900000            -6.062178             0.074868
H            11.750000            -3.897114             0.091928
C            13.300000            -6.062178             0.099602
C            11.900000            -8.487049             0.048941
C            13.300000            -8.487049             0.037224
C            14.000000            -7.274613             0.040477
H            13.850000            -5.109550             0.026374
H            13.850000            -9.439677             0.059203
H            15.100000            -7.274613             0.012876
C            -2.800000             0.000000             0.018184
C            -3.500000            -1.212436             0.092432
C            -2.800000            -2.424871             0.051817
C            -1.400000            -2.424871             0.090565
H            -3.350000             0.952628             0.044140
C            -0.700000            -3.637307             0.086252
C             0.700000            -3.637307             0.074949
C             1.400000            -4.849742             0.074164
C             2.800000            -4.849742             0.020387
C             3.500000            -6.062178             0.000401
C             4.900000            -6.062178             0.074003
C             5.600000            -7.274613             0.018865
C             7.000000            -7.274613             0.045589
C             7.700000            -8.487049             0.051722
C             9.100000            -8.487049             0.093170
C             9.800000            -9.699485             0.027109
C            11.200000            -9.699485             0.083638
H            11.750000           -10.652112             0.022892
C            -4.900000            -1.212436             0.005091
C            -5.600000            -2.424871             0.007678
C            -4.900000            -3.637307             0.076610
C            -3.500000            -3.637307             0.078046
H            -5.450000            -0.259808             0.083826
C            -2.800000            -4.849742             0.055812
C            -1.400000            -4.849742             0.053805
C            -0.700000            -6.062178             0.057829
C             0.700000            -6.062178             0.012268
C             1.400000            -7.274613             0.011478
C             2.800000            -7.274613             0.076168
C             3.500000            -8.487049             0.024580
C             4.900000            -8.487049             0.014731
C             5.600000            -9.699485             0.034721
C             7.000000            -9.699485             0.025683
C             7.700000           -10.911920             0.066318
C             9.100000           -10.911920             0.047028
H             9.650000           -11.864548             0.080880
C            -7.000000            -2.424871             0.055389
C            -7.700000            -3.637307             0.079890
C            -7.000000            -4.849742             0.013337
C            -5.600000            -4.849742             0.038547
H            -7.550000            -1.472243             0.042327
C            -4.900000            -6.062178             0.041484
C            -3.500000            -6.062178             0.030131
C            -2.800000            -7.274613             0.062497
C            -1.400000            -7.274613             0.054872
C            -0.700000            -8.487049             0.051748
C             0.700000            -8.487049             0.006879
C             1.400000            -9.699485             0.056184
C             2.800000            -9.699485             0.064136
C             3.500000           -10.911920             0.005433
C             4.900000           -10.911920             0.033325
C             5.600000           -12.124356             0.076894
C             7.000000           -12.124356             0.040246
H             7.550000           -13.076984             0.046760
C            -9.100000            -3.637307             0.059333
C            -9.800000            -4.849742             0.045685
C            -9.100000            -6.062178             0.030098
N            -7.700000            -6.062178             0.074592
H            -9.650000            -2.684679             0.012541
B            -7.000000            -7.274613             0.071775
C            -5.600000            -7.274613             0.098501
C            -4.900000            -8.487049             0.025926
C            -3.500000            -8.487049             0.075667
C            -2.800000            -9.699485             0.008568
C            -1.400000            -9.699485             0.083110
C            -0.700000           -10.911920             0.081490
C             0.700000           -10.911920             0.013908
C             1.400000           -12.124356             0.084777
C             2.800000           -12.124356             0.080181
C             3.500000           -13.336791             0.026063
C             4.900000           -13.336791             0.027289
H             5.450000           -14.289419             0.024229
C           -11.200000            -4.849742             0.020654
C           -11.900000            -6.062178             0.026189
C           -11.200000            -7.274613             0.066506
C            -9.800000            -7.274613             0.015572
H           -11.750000            -3.897114             0.061513
C            -9.100000            -8.487049             0.024780
C            -7.700000            -8.487049             0.085272
C            -7.000000            -9.699485             0.097739
C            -5.600000            -9.699485             0.014554
C            -4.900000           -10.911920             0.029222
C            -3.500000           -10.911920             0.008539
C            -2.800000           -12.124356             0.054652
C            -1.400000           -12.124356             0.076478
C            -0.700000           -13.336791             0.020576
C             0.700000           -13.336791             0.043765
C             1.400000           -14.549227             0.065737
C             2.800000           -14.549227             0.077108
H             3.350000           -15.501855             0.015515
C           -13.300000            -6.062178             0.070133
C           -14.000000            -7.274613             0.010473
C           -13.300000            -8.487049             0.097721
C           -11.900000            -8.487049             0.001813
H           -13.850000            -5.109550             0.028887
H           -15.100000            -7.274613             0.083496
H           -13.850000            -9.439677             0.070338
C           -11.200000            -9.699485             0.056697
C            -9.800000            -9.699485             0.049573
H           -11.750000           -10.652112             0.021148
C            -9.100000           -10.911920             0.083821
C            -7.700000           -10.911920             0.046103
H            -9.650000           -11.864548             0.080865
C            -7.000000           -12.124356             0.046585
C            -5.600000           -12.124356             0.035439
H            -7.550000           -13.076984             0.037153
C            -4.900000           -13.336791             0.053147
C            -3.500000           -13.336791             0.013546
H            -5.450000           -14.289419             0.075829
C            -2.800000           -14.549227             0.010281
C            -1.400000           -14.549227             0.073672
H            -3.350000           -15.501855             0.075993
C            -0.700000           -15.761662             0.091957
C             0.700000           -15.761662             0.071367
H            -1.250000           -16.714290             0.051174
H             1.250000           -16.714290             0.037505
