156
isomero_20_19
C             0.700000             1.212436             0.062884
C            -0.700000             1.212436             0.071106
C            -1.400000             0.000000             0.036438
C            -0.700000            -1.212436             0.015486
C             0.700000            -1.212436             0.097736
C             1.400000            -0.000000             0.006314
H             1.250000             2.165064             0.012954
H            -1.250000             2.165064             0.072729
C             2.800000             0.000000             0.047536
C             1.400000            -2.424871             0.097799
C             2.800000            -2.424871             0.070474
C             3.500000            -1.212436             0.039918
H             3.350000             0.952628             0.061043
C             4.900000            -1.212436             0.098054
C             3.500000            -3.637307             0.067793
C             4.900000            -3.637307             0.012067
C             5.600000            -2.424871             0.006856
H             5.450000            -0.259808             0.044022
C             7.000000            -2.424871             0.031079
C             5.600000            -4.849742             0.000681
C             7.000000            -4.849742             0.019622
C             7.700000            -3.637307             0.076568
H             7.550000            -1.472243             0.098738
C             9.100000            -3.637307             0.074076
C             7.700000            -6.062178             0.039285
C             9.100000            -6.062178             0.039655
C             9.800000            -4.849742             0.017678
H             9.650000            -2.684679             0.071585
C            11.200000            -4.849742             0.054112
C             9.800000            -7.274613             0.009166
C            11.200000            -7.274613             0.034366
C            11.900000            -6.062178             0.041451
H            11.750000            -3.897114             0.042503
C            13.300000            -6.062178             0.055911
C            11.900000            -8.487049             0.051837
C            13.300000            -8.487049             0.044811
C            14.000000            -7.274613             0.070643
H            13.850000            -5.109550             0.040604
H            13.850000            -9.439677             0.037638
H            15.100000            -7.274613             0.085102
C            -2.800000             0.000000             0.017858
C            -3.500000            -1.212436             0.045754
C            -2.800000            -2.424871             0.041728
C            -1.400000            -2.424871             0.098645
H            -3.350000             0.952628             0.090269
C            -0.700000            -3.637307             0.082026
C             0.700000            -3.637307             0.075786
C             1.400000            -4.849742             0.049977
C             2.800000            -4.849742             0.021602
C             3.500000            -6.062178             0.069345
C             4.900000            -6.062178             0.037759
C             5.600000            -7.274613             0.042235
C             7.000000            -7.274613             0.044624
C             7.700000            -8.487049             0.094137
C             9.100000            -8.487049             0.082940
C             9.800000            -9.699485             0.075878
C            11.200000            -9.699485             0.008009
H            11.750000           -10.652112             0.057763
C            -4.900000            -1.212436             0.077822
N            -5.600000            -2.424871             0.015754
C            -4.900000            -3.637307             0.099975
C            -3.500000            -3.637307             0.007585
H            -5.450000            -0.259808             0.079079
C            -2.800000            -4.849742             0.063424
C            -1.400000            -4.849742             0.048902
C            -0.700000            -6.062178             0.098961
C             0.700000            -6.062178             0.027084
C             1.400000            -7.274613             0.033888
C             2.800000            -7.274613             0.049784
C             3.500000            -8.487049             0.083615
C             4.900000            -8.487049             0.012630
C             5.600000            -9.699485             0.011960
C             7.000000            -9.699485             0.045892
C             7.700000           -10.911920             0.055024
C             9.100000           -10.911920             0.075337
H             9.650000           -11.864548             0.043831
B            -7.000000            -2.424871             0.058954
C            -7.700000            -3.637307             0.091574
C            -7.000000            -4.849742             0.052851
C            -5.600000            -4.849742             0.049391
H            -7.550000            -1.472243             0.021355
C            -4.900000            -6.062178             0.075219
C            -3.500000            -6.062178             0.070249
C            -2.800000            -7.274613             0.007757
C            -1.400000            -7.274613             0.045144
C            -0.700000            -8.487049             0.014302
C             0.700000            -8.487049             0.017470
C             1.400000            -9.699485             0.075984
C             2.800000            -9.699485             0.082079
C             3.500000           -10.911920             0.064607
C             4.900000           -10.911920             0.050788
C             5.600000           -12.124356             0.066140
C             7.000000           -12.124356             0.097840
H             7.550000           -13.076984             0.010818
C            -9.100000            -3.637307             0.065482
C            -9.800000            -4.849742             0.035052
C            -9.100000            -6.062178             0.088361
C            -7.700000            -6.062178             0.035901
H            -9.650000            -2.684679             0.069946
C            -7.000000            -7.274613             0.086384
C            -5.600000            -7.274613             0.031959
C            -4.900000            -8.487049             0.056814
C            -3.500000            -8.487049             0.088435
C            -2.800000            -9.699485             0.018098
C            -1.400000            -9.699485             0.041525
C            -0.700000           -10.911920             0.028317
C             0.700000           -10.911920             0.000265
C             1.400000           -12.124356             0.075773
C             2.800000           -12.124356             0.003265
C             3.500000           -13.336791             0.080119
C             4.900000           -13.336791             0.019598
H             5.450000           -14.289419             0.013273
C           -11.200000            -4.849742             0.007374
C           -11.900000            -6.062178             0.018350
C           -11.200000            -7.274613             0.095729
C            -9.800000            -7.274613             0.050295
H           -11.750000            -3.897114             0.098985
C            -9.100000            -8.487049             0.068575
C            -7.700000            -8.487049             0.010681
C            -7.000000            -9.699485             0.030428
C            -5.600000            -9.699485             0.009338
C            -4.900000           -10.911920             0.023113
C            -3.500000           -10.911920             0.002538
C            -2.800000           -12.124356             0.023558
C            -1.400000           -12.124356             0.094066
C            -0.700000           -13.336791             0.023626
C             0.700000           -13.336791             0.025495
C             1.400000           -14.549227             0.008106
C             2.800000           -14.549227             0.027549
H             3.350000           -15.501855             0.099695
C           -13.300000            -6.062178             0.087858
C           -14.000000            -7.274613             0.054216
C           -13.300000            -8.487049             0.059862
C           -11.900000            -8.487049             0.079729
H           -13.850000            -5.109550             0.029611
H           -15.100000            -7.274613             0.026251
H           -13.850000            -9.439677             0.090627
C           -11.200000            -9.699485             0.008206
C            -9.800000            -9.699485             0.041849
H           -11.750000           -10.652112             0.086221
C            -9.100000           -10.911920             0.059971
C            -7.700000           -10.911920             0.097383
H            -9.650000           -11.864548             0.045023
C            -7.000000           -12.124356             0.029475
C            -5.600000           -12.124356             0.042571
H            -7.550000           -13.076984             0.008738
C            -4.900000           -13.336791             0.002483
C            -3.500000           -13.336791             0.082603
H            -5.450000           -14.289419             0.005696
C            -2.800000           -14.549227             0.010362
C            -1.400000           -14.549227             0.054806
H            -3.350000           -15.501855             0.085677
C            -0.700000           -15.761662             0.050258
C             0.700000           -15.761662             0.076615
H            -1.250000           -16.714290             0.088632
H             1.250000           -16.714290             0.001752
