156
isomero_54_68
C             0.700000             1.212436             0.076649
C            -0.700000             1.212436             0.097101
C            -1.400000             0.000000             0.033365
C            -0.700000            -1.212436             0.069775
C             0.700000            -1.212436             0.002466
C             1.400000            -0.000000             0.095295
H             1.250000             2.165064             0.020066
H            -1.250000             2.165064             0.027933
C             2.800000             0.000000             0.083120
C             1.400000            -2.424871             0.089159
C             2.800000            -2.424871             0.020122
C             3.500000            -1.212436             0.044565
H             3.350000             0.952628             0.088491
C             4.900000            -1.212436             0.052982
C             3.500000            -3.637307             0.076348
C             4.900000            -3.637307             0.036847
C             5.600000            -2.424871             0.009283
H             5.450000            -0.259808             0.010660
C             7.000000            -2.424871             0.051070
C             5.600000            -4.849742             0.068315
C             7.000000            -4.849742             0.075336
C             7.700000            -3.637307             0.051111
H             7.550000            -1.472243             0.038701
C             9.100000            -3.637307             0.012243
C             7.700000            -6.062178             0.021256
C             9.100000            -6.062178             0.018560
C             9.800000            -4.849742             0.059454
H             9.650000            -2.684679             0.008069
C            11.200000            -4.849742             0.007188
C             9.800000            -7.274613             0.028387
C            11.200000            -7.274613             0.015114
C            11.900000            -6.062178             0.009655
H            11.750000            -3.897114             0.090251
C            13.300000            -6.062178             0.059678
C            11.900000            -8.487049             0.093362
C            13.300000            -8.487049             0.035850
C            14.000000            -7.274613             0.089447
H            13.850000            -5.109550             0.018122
H            13.850000            -9.439677             0.059370
H            15.100000            -7.274613             0.064885
C            -2.800000             0.000000             0.044910
C            -3.500000            -1.212436             0.016877
C            -2.800000            -2.424871             0.009889
C            -1.400000            -2.424871             0.032152
H            -3.350000             0.952628             0.017529
C            -0.700000            -3.637307             0.014759
C             0.700000            -3.637307             0.052602
C             1.400000            -4.849742             0.089046
C             2.800000            -4.849742             0.032783
C             3.500000            -6.062178             0.004653
C             4.900000            -6.062178             0.095273
C             5.600000            -7.274613             0.091693
C             7.000000            -7.274613             0.033904
C             7.700000            -8.487049             0.064789
C             9.100000            -8.487049             0.051436
C             9.800000            -9.699485             0.052171
C            11.200000            -9.699485             0.055332
H            11.750000           -10.652112             0.081213
C            -4.900000            -1.212436             0.000335
C            -5.600000            -2.424871             0.077213
C            -4.900000            -3.637307             0.031178
C            -3.500000            -3.637307             0.006868
H            -5.450000            -0.259808             0.022361
C            -2.800000            -4.849742             0.011229
C            -1.400000            -4.849742             0.072987
C            -0.700000            -6.062178             0.046723
C             0.700000            -6.062178             0.056607
C             1.400000            -7.274613             0.054213
C             2.800000            -7.274613             0.092850
C             3.500000            -8.487049             0.058686
C             4.900000            -8.487049             0.048290
C             5.600000            -9.699485             0.055965
C             7.000000            -9.699485             0.019887
C             7.700000           -10.911920             0.076890
C             9.100000           -10.911920             0.040457
H             9.650000           -11.864548             0.080750
C            -7.000000            -2.424871             0.053116
C            -7.700000            -3.637307             0.073829
C            -7.000000            -4.849742             0.052420
C            -5.600000            -4.849742             0.068111
H            -7.550000            -1.472243             0.086336
C            -4.900000            -6.062178             0.035034
C            -3.500000            -6.062178             0.006385
C            -2.800000            -7.274613             0.047038
C            -1.400000            -7.274613             0.022814
C            -0.700000            -8.487049             0.021490
C             0.700000            -8.487049             0.085513
C             1.400000            -9.699485             0.078806
C             2.800000            -9.699485             0.015129
C             3.500000           -10.911920             0.027764
C             4.900000           -10.911920             0.025261
C             5.600000           -12.124356             0.018859
C             7.000000           -12.124356             0.058470
H             7.550000           -13.076984             0.044038
C            -9.100000            -3.637307             0.012909
C            -9.800000            -4.849742             0.074273
B            -9.100000            -6.062178             0.058528
C            -7.700000            -6.062178             0.077618
H            -9.650000            -2.684679             0.047978
C            -7.000000            -7.274613             0.089646
C            -5.600000            -7.274613             0.011646
C            -4.900000            -8.487049             0.057329
C            -3.500000            -8.487049             0.055124
C            -2.800000            -9.699485             0.053221
C            -1.400000            -9.699485             0.027822
C            -0.700000           -10.911920             0.085069
C             0.700000           -10.911920             0.021729
C             1.400000           -12.124356             0.023409
C             2.800000           -12.124356             0.018519
C             3.500000           -13.336791             0.085806
C             4.900000           -13.336791             0.001620
H             5.450000           -14.289419             0.037755
C           -11.200000            -4.849742             0.021805
C           -11.900000            -6.062178             0.063316
C           -11.200000            -7.274613             0.013602
N            -9.800000            -7.274613             0.001499
H           -11.750000            -3.897114             0.033519
C            -9.100000            -8.487049             0.093581
C            -7.700000            -8.487049             0.072033
C            -7.000000            -9.699485             0.045067
C            -5.600000            -9.699485             0.002703
C            -4.900000           -10.911920             0.013923
C            -3.500000           -10.911920             0.095175
C            -2.800000           -12.124356             0.099195
C            -1.400000           -12.124356             0.036114
C            -0.700000           -13.336791             0.048798
C             0.700000           -13.336791             0.075209
C             1.400000           -14.549227             0.067007
C             2.800000           -14.549227             0.056625
H             3.350000           -15.501855             0.053558
C           -13.300000            -6.062178             0.074051
C           -14.000000            -7.274613             0.008180
C           -13.300000            -8.487049             0.074818
C           -11.900000            -8.487049             0.007391
H           -13.850000            -5.109550             0.052173
H           -15.100000            -7.274613             0.055239
H           -13.850000            -9.439677             0.034676
C           -11.200000            -9.699485             0.050588
C            -9.800000            -9.699485             0.002480
H           -11.750000           -10.652112             0.026549
C            -9.100000           -10.911920             0.092453
C            -7.700000           -10.911920             0.089102
H            -9.650000           -11.864548             0.018499
C            -7.000000           -12.124356             0.088841
C            -5.600000           -12.124356             0.055564
H            -7.550000           -13.076984             0.074516
C            -4.900000           -13.336791             0.074638
C            -3.500000           -13.336791             0.040415
H            -5.450000           -14.289419             0.000398
C            -2.800000           -14.549227             0.025374
C            -1.400000           -14.549227             0.008115
H            -3.350000           -15.501855             0.016006
C            -0.700000           -15.761662             0.033597
C             0.700000           -15.761662             0.044138
H            -1.250000           -16.714290             0.078915
H             1.250000           -16.714290             0.017038
