156
isomero_37_26
C             0.700000             1.212436             0.058911
C            -0.700000             1.212436             0.066034
C            -1.400000             0.000000             0.084252
C            -0.700000            -1.212436             0.053187
C             0.700000            -1.212436             0.044991
C             1.400000            -0.000000             0.041149
H             1.250000             2.165064             0.017563
H            -1.250000             2.165064             0.096046
C             2.800000             0.000000             0.086677
C             1.400000            -2.424871             0.071215
C             2.800000            -2.424871             0.088341
C             3.500000            -1.212436             0.069859
H             3.350000             0.952628             0.094692
C             4.900000            -1.212436             0.096526
C             3.500000            -3.637307             0.034241
C             4.900000            -3.637307             0.016825
C             5.600000            -2.424871             0.064669
H             5.450000            -0.259808             0.037942
C             7.000000            -2.424871             0.049901
C             5.600000            -4.849742             0.017520
C             7.000000            -4.849742             0.014824
C             7.700000            -3.637307             0.076792
H             7.550000            -1.472243             0.065077
C             9.100000            -3.637307             0.096161
C             7.700000            -6.062178             0.025001
C             9.100000            -6.062178             0.004968
C             9.800000            -4.849742             0.095873
H             9.650000            -2.684679             0.056303
C            11.200000            -4.849742             0.092056
C             9.800000            -7.274613             0.006648
C            11.200000            -7.274613             0.007011
C            11.900000            -6.062178             0.029331
H            11.750000            -3.897114             0.058550
C            13.300000            -6.062178             0.056173
C            11.900000            -8.487049             0.053744
C            13.300000            -8.487049             0.033812
C            14.000000            -7.274613             0.019523
H            13.850000            -5.109550             0.074128
H            13.850000            -9.439677             0.004607
H            15.100000            -7.274613             0.099298
C            -2.800000             0.000000             0.044920
C            -3.500000            -1.212436             0.082127
C            -2.800000            -2.424871             0.091178
C            -1.400000            -2.424871             0.034091
H            -3.350000             0.952628             0.028758
N            -0.700000            -3.637307             0.094911
C             0.700000            -3.637307             0.075943
C             1.400000            -4.849742             0.088782
C             2.800000            -4.849742             0.034861
C             3.500000            -6.062178             0.007901
C             4.900000            -6.062178             0.041577
C             5.600000            -7.274613             0.009517
C             7.000000            -7.274613             0.022241
C             7.700000            -8.487049             0.044335
C             9.100000            -8.487049             0.012442
C             9.800000            -9.699485             0.023547
C            11.200000            -9.699485             0.013758
H            11.750000           -10.652112             0.068731
C            -4.900000            -1.212436             0.011967
C            -5.600000            -2.424871             0.038396
C            -4.900000            -3.637307             0.054717
C            -3.500000            -3.637307             0.026263
H            -5.450000            -0.259808             0.038313
C            -2.800000            -4.849742             0.009773
B            -1.400000            -4.849742             0.058785
C            -0.700000            -6.062178             0.010134
C             0.700000            -6.062178             0.015634
C             1.400000            -7.274613             0.019423
C             2.800000            -7.274613             0.024409
C             3.500000            -8.487049             0.096120
C             4.900000            -8.487049             0.071914
C             5.600000            -9.699485             0.051077
C             7.000000            -9.699485             0.023798
C             7.700000           -10.911920             0.063149
C             9.100000           -10.911920             0.043914
H             9.650000           -11.864548             0.073776
C            -7.000000            -2.424871             0.036052
C            -7.700000            -3.637307             0.072351
C            -7.000000            -4.849742             0.096228
C            -5.600000            -4.849742             0.003280
H            -7.550000            -1.472243             0.013825
C            -4.900000            -6.062178             0.034264
C            -3.500000            -6.062178             0.005096
C            -2.800000            -7.274613             0.019401
C            -1.400000            -7.274613             0.005858
C            -0.700000            -8.487049             0.000144
C             0.700000            -8.487049             0.018187
C             1.400000            -9.699485             0.078521
C             2.800000            -9.699485             0.091781
C             3.500000           -10.911920             0.049455
C             4.900000           -10.911920             0.061745
C             5.600000           -12.124356             0.045748
C             7.000000           -12.124356             0.025503
H             7.550000           -13.076984             0.063530
C            -9.100000            -3.637307             0.010228
C            -9.800000            -4.849742             0.054986
C            -9.100000            -6.062178             0.010801
C            -7.700000            -6.062178             0.026361
H            -9.650000            -2.684679             0.062256
C            -7.000000            -7.274613             0.031402
C            -5.600000            -7.274613             0.092995
C            -4.900000            -8.487049             0.028749
C            -3.500000            -8.487049             0.069727
C            -2.800000            -9.699485             0.007539
C            -1.400000            -9.699485             0.029099
C            -0.700000           -10.911920             0.000957
C             0.700000           -10.911920             0.012792
C             1.400000           -12.124356             0.075128
C             2.800000           -12.124356             0.038860
C             3.500000           -13.336791             0.003095
C             4.900000           -13.336791             0.083689
H             5.450000           -14.289419             0.035075
C           -11.200000            -4.849742             0.038128
C           -11.900000            -6.062178             0.012660
C           -11.200000            -7.274613             0.024170
C            -9.800000            -7.274613             0.041638
H           -11.750000            -3.897114             0.000717
C            -9.100000            -8.487049             0.043640
C            -7.700000            -8.487049             0.023305
C            -7.000000            -9.699485             0.046342
C            -5.600000            -9.699485             0.070248
C            -4.900000           -10.911920             0.027241
C            -3.500000           -10.911920             0.073534
C            -2.800000           -12.124356             0.099262
C            -1.400000           -12.124356             0.095160
C            -0.700000           -13.336791             0.021058
C             0.700000           -13.336791             0.099096
C             1.400000           -14.549227             0.094555
C             2.800000           -14.549227             0.084350
H             3.350000           -15.501855             0.050542
C           -13.300000            -6.062178             0.029468
C           -14.000000            -7.274613             0.096956
C           -13.300000            -8.487049             0.012928
C           -11.900000            -8.487049             0.036679
H           -13.850000            -5.109550             0.003004
H           -15.100000            -7.274613             0.036403
H           -13.850000            -9.439677             0.051430
C           -11.200000            -9.699485             0.088361
C            -9.800000            -9.699485             0.088138
H           -11.750000           -10.652112             0.092849
C            -9.100000           -10.911920             0.040778
C            -7.700000           -10.911920             0.033317
H            -9.650000           -11.864548             0.039681
C            -7.000000           -12.124356             0.026601
C            -5.600000           -12.124356             0.070135
H            -7.550000           -13.076984             0.097966
C            -4.900000           -13.336791             0.045981
C            -3.500000           -13.336791             0.087471
H            -5.450000           -14.289419             0.025694
C            -2.800000           -14.549227             0.096915
C            -1.400000           -14.549227             0.061573
H            -3.350000           -15.501855             0.091987
C            -0.700000           -15.761662             0.070699
C             0.700000           -15.761662             0.025084
H            -1.250000           -16.714290             0.042927
H             1.250000           -16.714290             0.020267
