156
isomero_28_39
C             0.700000             1.212436             0.001771
C            -0.700000             1.212436             0.089873
C            -1.400000             0.000000             0.058311
C            -0.700000            -1.212436             0.075804
C             0.700000            -1.212436             0.054866
C             1.400000            -0.000000             0.099073
H             1.250000             2.165064             0.054421
H            -1.250000             2.165064             0.092175
C             2.800000             0.000000             0.050895
C             1.400000            -2.424871             0.042517
C             2.800000            -2.424871             0.081609
C             3.500000            -1.212436             0.094800
H             3.350000             0.952628             0.076056
C             4.900000            -1.212436             0.007946
C             3.500000            -3.637307             0.044697
C             4.900000            -3.637307             0.085842
C             5.600000            -2.424871             0.049203
H             5.450000            -0.259808             0.080685
C             7.000000            -2.424871             0.093976
C             5.600000            -4.849742             0.066178
C             7.000000            -4.849742             0.069979
C             7.700000            -3.637307             0.069072
H             7.550000            -1.472243             0.067063
C             9.100000            -3.637307             0.005197
C             7.700000            -6.062178             0.086869
C             9.100000            -6.062178             0.067449
C             9.800000            -4.849742             0.098752
H             9.650000            -2.684679             0.044562
C            11.200000            -4.849742             0.083518
C             9.800000            -7.274613             0.009720
C            11.200000            -7.274613             0.084991
C            11.900000            -6.062178             0.005113
H            11.750000            -3.897114             0.083601
C            13.300000            -6.062178             0.068758
C            11.900000            -8.487049             0.052394
C            13.300000            -8.487049             0.053608
C            14.000000            -7.274613             0.024865
H            13.850000            -5.109550             0.029638
H            13.850000            -9.439677             0.015540
H            15.100000            -7.274613             0.008955
C            -2.800000             0.000000             0.094155
C            -3.500000            -1.212436             0.043829
C            -2.800000            -2.424871             0.075637
C            -1.400000            -2.424871             0.081332
H            -3.350000             0.952628             0.007421
C            -0.700000            -3.637307             0.033118
C             0.700000            -3.637307             0.086983
C             1.400000            -4.849742             0.046084
C             2.800000            -4.849742             0.058470
C             3.500000            -6.062178             0.063034
C             4.900000            -6.062178             0.064144
C             5.600000            -7.274613             0.055814
C             7.000000            -7.274613             0.019847
C             7.700000            -8.487049             0.034529
C             9.100000            -8.487049             0.067976
C             9.800000            -9.699485             0.025148
C            11.200000            -9.699485             0.074506
H            11.750000           -10.652112             0.025690
C            -4.900000            -1.212436             0.044218
C            -5.600000            -2.424871             0.058579
B            -4.900000            -3.637307             0.084886
C            -3.500000            -3.637307             0.096142
H            -5.450000            -0.259808             0.006703
C            -2.800000            -4.849742             0.015972
C            -1.400000            -4.849742             0.080128
C            -0.700000            -6.062178             0.058806
C             0.700000            -6.062178             0.068985
C             1.400000            -7.274613             0.094451
C             2.800000            -7.274613             0.028035
C             3.500000            -8.487049             0.036344
C             4.900000            -8.487049             0.078552
C             5.600000            -9.699485             0.011763
C             7.000000            -9.699485             0.004649
C             7.700000           -10.911920             0.051105
C             9.100000           -10.911920             0.018882
H             9.650000           -11.864548             0.074657
C            -7.000000            -2.424871             0.043399
C            -7.700000            -3.637307             0.040948
C            -7.000000            -4.849742             0.020350
N            -5.600000            -4.849742             0.015650
H            -7.550000            -1.472243             0.095744
C            -4.900000            -6.062178             0.083238
C            -3.500000            -6.062178             0.043680
C            -2.800000            -7.274613             0.078432
C            -1.400000            -7.274613             0.064579
C            -0.700000            -8.487049             0.007516
C             0.700000            -8.487049             0.090953
C             1.400000            -9.699485             0.077612
C             2.800000            -9.699485             0.067928
C             3.500000           -10.911920             0.051036
C             4.900000           -10.911920             0.036074
C             5.600000           -12.124356             0.005612
C             7.000000           -12.124356             0.088560
H             7.550000           -13.076984             0.047814
C            -9.100000            -3.637307             0.012970
C            -9.800000            -4.849742             0.057284
C            -9.100000            -6.062178             0.013404
C            -7.700000            -6.062178             0.060688
H            -9.650000            -2.684679             0.066359
C            -7.000000            -7.274613             0.048836
C            -5.600000            -7.274613             0.035656
C            -4.900000            -8.487049             0.002352
C            -3.500000            -8.487049             0.049451
C            -2.800000            -9.699485             0.037029
C            -1.400000            -9.699485             0.053529
C            -0.700000           -10.911920             0.090580
C             0.700000           -10.911920             0.078381
C             1.400000           -12.124356             0.081736
C             2.800000           -12.124356             0.097206
C             3.500000           -13.336791             0.047632
C             4.900000           -13.336791             0.086210
H             5.450000           -14.289419             0.089564
C           -11.200000            -4.849742             0.009449
C           -11.900000            -6.062178             0.072687
C           -11.200000            -7.274613             0.019852
C            -9.800000            -7.274613             0.072032
H           -11.750000            -3.897114             0.076012
C            -9.100000            -8.487049             0.042559
C            -7.700000            -8.487049             0.073145
C            -7.000000            -9.699485             0.099141
C            -5.600000            -9.699485             0.082781
C            -4.900000           -10.911920             0.038410
C            -3.500000           -10.911920             0.072621
C            -2.800000           -12.124356             0.010322
C            -1.400000           -12.124356             0.091898
C            -0.700000           -13.336791             0.020504
C             0.700000           -13.336791             0.042155
C             1.400000           -14.549227             0.086174
C             2.800000           -14.549227             0.089392
H             3.350000           -15.501855             0.022977
C           -13.300000            -6.062178             0.053568
C           -14.000000            -7.274613             0.082131
C           -13.300000            -8.487049             0.071669
C           -11.900000            -8.487049             0.022846
H           -13.850000            -5.109550             0.020544
H           -15.100000            -7.274613             0.065295
H           -13.850000            -9.439677             0.052979
C           -11.200000            -9.699485             0.037745
C            -9.800000            -9.699485             0.057370
H           -11.750000           -10.652112             0.028099
C            -9.100000           -10.911920             0.088279
C            -7.700000           -10.911920             0.035107
H            -9.650000           -11.864548             0.021796
C            -7.000000           -12.124356             0.061162
C            -5.600000           -12.124356             0.087948
H            -7.550000           -13.076984             0.087823
C            -4.900000           -13.336791             0.043630
C            -3.500000           -13.336791             0.041396
H            -5.450000           -14.289419             0.038531
C            -2.800000           -14.549227             0.009310
C            -1.400000           -14.549227             0.046965
H            -3.350000           -15.501855             0.024152
C            -0.700000           -15.761662             0.060705
C             0.700000           -15.761662             0.005055
H            -1.250000           -16.714290             0.014136
H             1.250000           -16.714290             0.047361
