156
isomero_10_17
C             0.700000             1.212436             0.095159
C            -0.700000             1.212436             0.066362
C            -1.400000             0.000000             0.002138
B            -0.700000            -1.212436             0.073727
C             0.700000            -1.212436             0.026325
C             1.400000            -0.000000             0.044745
H             1.250000             2.165064             0.096547
H            -1.250000             2.165064             0.099995
C             2.800000             0.000000             0.053271
C             1.400000            -2.424871             0.096809
C             2.800000            -2.424871             0.058725
C             3.500000            -1.212436             0.086081
H             3.350000             0.952628             0.083628
C             4.900000            -1.212436             0.019217
C             3.500000            -3.637307             0.096338
C             4.900000            -3.637307             0.015553
C             5.600000            -2.424871             0.092684
H             5.450000            -0.259808             0.069718
C             7.000000            -2.424871             0.029831
C             5.600000            -4.849742             0.035880
C             7.000000            -4.849742             0.013766
C             7.700000            -3.637307             0.027604
H             7.550000            -1.472243             0.070853
C             9.100000            -3.637307             0.022607
C             7.700000            -6.062178             0.043999
C             9.100000            -6.062178             0.026501
C             9.800000            -4.849742             0.073710
H             9.650000            -2.684679             0.048651
C            11.200000            -4.849742             0.077944
C             9.800000            -7.274613             0.017140
C            11.200000            -7.274613             0.001461
C            11.900000            -6.062178             0.015338
H            11.750000            -3.897114             0.047389
C            13.300000            -6.062178             0.005659
C            11.900000            -8.487049             0.076655
C            13.300000            -8.487049             0.077332
C            14.000000            -7.274613             0.060603
H            13.850000            -5.109550             0.028755
H            13.850000            -9.439677             0.005709
H            15.100000            -7.274613             0.075990
C            -2.800000             0.000000             0.093906
C            -3.500000            -1.212436             0.073442
C            -2.800000            -2.424871             0.015787
N            -1.400000            -2.424871             0.083724
H            -3.350000             0.952628             0.049993
C            -0.700000            -3.637307             0.097331
C             0.700000            -3.637307             0.005228
C             1.400000            -4.849742             0.055920
C             2.800000            -4.849742             0.035511
C             3.500000            -6.062178             0.059767
C             4.900000            -6.062178             0.089530
C             5.600000            -7.274613             0.088804
C             7.000000            -7.274613             0.071596
C             7.700000            -8.487049             0.087423
C             9.100000            -8.487049             0.063805
C             9.800000            -9.699485             0.097782
C            11.200000            -9.699485             0.034571
H            11.750000           -10.652112             0.031104
C            -4.900000            -1.212436             0.030764
C            -5.600000            -2.424871             0.047692
C            -4.900000            -3.637307             0.069257
C            -3.500000            -3.637307             0.024618
H            -5.450000            -0.259808             0.066705
C            -2.800000            -4.849742             0.094949
C            -1.400000            -4.849742             0.041267
C            -0.700000            -6.062178             0.067037
C             0.700000            -6.062178             0.043113
C             1.400000            -7.274613             0.005532
C             2.800000            -7.274613             0.011101
C             3.500000            -8.487049             0.097809
C             4.900000            -8.487049             0.097193
C             5.600000            -9.699485             0.024455
C             7.000000            -9.699485             0.031020
C             7.700000           -10.911920             0.036472
C             9.100000           -10.911920             0.002602
H             9.650000           -11.864548             0.000807
C            -7.000000            -2.424871             0.015779
C            -7.700000            -3.637307             0.091534
C            -7.000000            -4.849742             0.008135
C            -5.600000            -4.849742             0.036714
H            -7.550000            -1.472243             0.094664
C            -4.900000            -6.062178             0.031200
C            -3.500000            -6.062178             0.006176
C            -2.800000            -7.274613             0.087538
C            -1.400000            -7.274613             0.042611
C            -0.700000            -8.487049             0.031774
C             0.700000            -8.487049             0.079843
C             1.400000            -9.699485             0.072583
C             2.800000            -9.699485             0.017958
C             3.500000           -10.911920             0.015169
C             4.900000           -10.911920             0.039143
C             5.600000           -12.124356             0.041225
C             7.000000           -12.124356             0.063379
H             7.550000           -13.076984             0.058327
C            -9.100000            -3.637307             0.005429
C            -9.800000            -4.849742             0.081899
C            -9.100000            -6.062178             0.066659
C            -7.700000            -6.062178             0.027703
H            -9.650000            -2.684679             0.011418
C            -7.000000            -7.274613             0.080922
C            -5.600000            -7.274613             0.013666
C            -4.900000            -8.487049             0.094607
C            -3.500000            -8.487049             0.040731
C            -2.800000            -9.699485             0.045996
C            -1.400000            -9.699485             0.028177
C            -0.700000           -10.911920             0.095303
C             0.700000           -10.911920             0.062702
C             1.400000           -12.124356             0.025671
C             2.800000           -12.124356             0.036027
C             3.500000           -13.336791             0.076679
C             4.900000           -13.336791             0.070577
H             5.450000           -14.289419             0.021620
C           -11.200000            -4.849742             0.091459
C           -11.900000            -6.062178             0.058318
C           -11.200000            -7.274613             0.010999
C            -9.800000            -7.274613             0.086246
H           -11.750000            -3.897114             0.033930
C            -9.100000            -8.487049             0.050393
C            -7.700000            -8.487049             0.049554
C            -7.000000            -9.699485             0.054930
C            -5.600000            -9.699485             0.030981
C            -4.900000           -10.911920             0.085436
C            -3.500000           -10.911920             0.039424
C            -2.800000           -12.124356             0.043509
C            -1.400000           -12.124356             0.080703
C            -0.700000           -13.336791             0.043979
C             0.700000           -13.336791             0.034872
C             1.400000           -14.549227             0.073905
C             2.800000           -14.549227             0.055423
H             3.350000           -15.501855             0.056405
C           -13.300000            -6.062178             0.072175
C           -14.000000            -7.274613             0.063902
C           -13.300000            -8.487049             0.061684
C           -11.900000            -8.487049             0.024700
H           -13.850000            -5.109550             0.074633
H           -15.100000            -7.274613             0.079149
H           -13.850000            -9.439677             0.058692
C           -11.200000            -9.699485             0.047132
C            -9.800000            -9.699485             0.062718
H           -11.750000           -10.652112             0.074631
C            -9.100000           -10.911920             0.000396
C            -7.700000           -10.911920             0.012737
H            -9.650000           -11.864548             0.080980
C            -7.000000           -12.124356             0.052932
C            -5.600000           -12.124356             0.027006
H            -7.550000           -13.076984             0.039841
C            -4.900000           -13.336791             0.073614
C            -3.500000           -13.336791             0.080458
H            -5.450000           -14.289419             0.043233
C            -2.800000           -14.549227             0.046095
C            -1.400000           -14.549227             0.092261
H            -3.350000           -15.501855             0.091230
C            -0.700000           -15.761662             0.047424
C             0.700000           -15.761662             0.033415
H            -1.250000           -16.714290             0.029632
H             1.250000           -16.714290             0.073589
