156
isomero_41_30
C             0.700000             1.212436             0.061959
C            -0.700000             1.212436             0.083700
C            -1.400000             0.000000             0.015945
C            -0.700000            -1.212436             0.097008
C             0.700000            -1.212436             0.056643
C             1.400000            -0.000000             0.032928
H             1.250000             2.165064             0.078538
H            -1.250000             2.165064             0.065408
C             2.800000             0.000000             0.054655
C             1.400000            -2.424871             0.041567
C             2.800000            -2.424871             0.096691
C             3.500000            -1.212436             0.028897
H             3.350000             0.952628             0.002873
C             4.900000            -1.212436             0.074518
C             3.500000            -3.637307             0.009347
C             4.900000            -3.637307             0.068905
C             5.600000            -2.424871             0.028993
H             5.450000            -0.259808             0.036236
C             7.000000            -2.424871             0.010022
C             5.600000            -4.849742             0.014294
C             7.000000            -4.849742             0.059656
C             7.700000            -3.637307             0.045404
H             7.550000            -1.472243             0.003309
C             9.100000            -3.637307             0.015222
C             7.700000            -6.062178             0.096759
C             9.100000            -6.062178             0.073198
C             9.800000            -4.849742             0.081663
H             9.650000            -2.684679             0.069402
C            11.200000            -4.849742             0.009800
C             9.800000            -7.274613             0.022302
C            11.200000            -7.274613             0.097650
C            11.900000            -6.062178             0.022029
H            11.750000            -3.897114             0.050979
C            13.300000            -6.062178             0.072761
C            11.900000            -8.487049             0.068168
C            13.300000            -8.487049             0.091800
C            14.000000            -7.274613             0.031944
H            13.850000            -5.109550             0.051823
H            13.850000            -9.439677             0.034382
H            15.100000            -7.274613             0.072031
C            -2.800000             0.000000             0.082344
C            -3.500000            -1.212436             0.095700
C            -2.800000            -2.424871             0.078806
C            -1.400000            -2.424871             0.090251
H            -3.350000             0.952628             0.063642
C            -0.700000            -3.637307             0.028685
C             0.700000            -3.637307             0.003696
C             1.400000            -4.849742             0.060140
C             2.800000            -4.849742             0.077233
C             3.500000            -6.062178             0.027798
C             4.900000            -6.062178             0.041129
C             5.600000            -7.274613             0.049073
C             7.000000            -7.274613             0.013679
C             7.700000            -8.487049             0.001790
C             9.100000            -8.487049             0.030254
C             9.800000            -9.699485             0.015172
C            11.200000            -9.699485             0.000982
H            11.750000           -10.652112             0.002036
C            -4.900000            -1.212436             0.029306
C            -5.600000            -2.424871             0.067659
C            -4.900000            -3.637307             0.085367
C            -3.500000            -3.637307             0.095173
H            -5.450000            -0.259808             0.086800
C            -2.800000            -4.849742             0.088422
C            -1.400000            -4.849742             0.032707
C            -0.700000            -6.062178             0.030662
C             0.700000            -6.062178             0.008979
C             1.400000            -7.274613             0.064127
C             2.800000            -7.274613             0.016999
C             3.500000            -8.487049             0.080402
C             4.900000            -8.487049             0.091992
C             5.600000            -9.699485             0.068989
C             7.000000            -9.699485             0.072826
C             7.700000           -10.911920             0.065560
C             9.100000           -10.911920             0.048278
H             9.650000           -11.864548             0.059997
C            -7.000000            -2.424871             0.038049
C            -7.700000            -3.637307             0.006074
C            -7.000000            -4.849742             0.095915
C            -5.600000            -4.849742             0.092345
H            -7.550000            -1.472243             0.041393
C            -4.900000            -6.062178             0.096399
C            -3.500000            -6.062178             0.014015
C            -2.800000            -7.274613             0.050061
C            -1.400000            -7.274613             0.000809
C            -0.700000            -8.487049             0.038632
C             0.700000            -8.487049             0.022476
C             1.400000            -9.699485             0.057391
C             2.800000            -9.699485             0.096225
C             3.500000           -10.911920             0.062597
C             4.900000           -10.911920             0.099023
C             5.600000           -12.124356             0.022393
C             7.000000           -12.124356             0.003047
H             7.550000           -13.076984             0.038978
N            -9.100000            -3.637307             0.093422
B            -9.800000            -4.849742             0.087541
C            -9.100000            -6.062178             0.077280
C            -7.700000            -6.062178             0.065463
H            -9.650000            -2.684679             0.092992
C            -7.000000            -7.274613             0.000237
C            -5.600000            -7.274613             0.036395
C            -4.900000            -8.487049             0.057515
C            -3.500000            -8.487049             0.036272
C            -2.800000            -9.699485             0.028678
C            -1.400000            -9.699485             0.026031
C            -0.700000           -10.911920             0.073814
C             0.700000           -10.911920             0.069996
C             1.400000           -12.124356             0.050705
C             2.800000           -12.124356             0.029891
C             3.500000           -13.336791             0.096997
C             4.900000           -13.336791             0.063720
H             5.450000           -14.289419             0.059090
C           -11.200000            -4.849742             0.006880
C           -11.900000            -6.062178             0.008902
C           -11.200000            -7.274613             0.010819
C            -9.800000            -7.274613             0.085939
H           -11.750000            -3.897114             0.077090
C            -9.100000            -8.487049             0.044282
C            -7.700000            -8.487049             0.052555
C            -7.000000            -9.699485             0.092574
C            -5.600000            -9.699485             0.061145
C            -4.900000           -10.911920             0.068273
C            -3.500000           -10.911920             0.066739
C            -2.800000           -12.124356             0.005039
C            -1.400000           -12.124356             0.090694
C            -0.700000           -13.336791             0.030825
C             0.700000           -13.336791             0.084788
C             1.400000           -14.549227             0.073443
C             2.800000           -14.549227             0.062701
H             3.350000           -15.501855             0.007852
C           -13.300000            -6.062178             0.027660
C           -14.000000            -7.274613             0.024369
C           -13.300000            -8.487049             0.054714
C           -11.900000            -8.487049             0.002032
H           -13.850000            -5.109550             0.012105
H           -15.100000            -7.274613             0.093175
H           -13.850000            -9.439677             0.016929
C           -11.200000            -9.699485             0.080516
C            -9.800000            -9.699485             0.008434
H           -11.750000           -10.652112             0.090904
C            -9.100000           -10.911920             0.036485
C            -7.700000           -10.911920             0.002955
H            -9.650000           -11.864548             0.092042
C            -7.000000           -12.124356             0.045747
C            -5.600000           -12.124356             0.005481
H            -7.550000           -13.076984             0.078657
C            -4.900000           -13.336791             0.080077
C            -3.500000           -13.336791             0.029694
H            -5.450000           -14.289419             0.017091
C            -2.800000           -14.549227             0.050549
C            -1.400000           -14.549227             0.076979
H            -3.350000           -15.501855             0.024809
C            -0.700000           -15.761662             0.043096
C             0.700000           -15.761662             0.035122
H            -1.250000           -16.714290             0.060355
H             1.250000           -16.714290             0.031813
