156
isomero_38_37
C             0.700000             1.212436             0.086156
C            -0.700000             1.212436             0.041883
C            -1.400000             0.000000             0.050993
C            -0.700000            -1.212436             0.092399
C             0.700000            -1.212436             0.050233
C             1.400000            -0.000000             0.013825
H             1.250000             2.165064             0.029196
H            -1.250000             2.165064             0.061901
C             2.800000             0.000000             0.009198
C             1.400000            -2.424871             0.065662
C             2.800000            -2.424871             0.057889
C             3.500000            -1.212436             0.031873
H             3.350000             0.952628             0.049430
C             4.900000            -1.212436             0.070824
C             3.500000            -3.637307             0.098553
C             4.900000            -3.637307             0.067647
C             5.600000            -2.424871             0.069054
H             5.450000            -0.259808             0.084083
C             7.000000            -2.424871             0.061270
C             5.600000            -4.849742             0.023506
C             7.000000            -4.849742             0.094868
C             7.700000            -3.637307             0.099609
H             7.550000            -1.472243             0.040871
C             9.100000            -3.637307             0.018226
C             7.700000            -6.062178             0.069221
C             9.100000            -6.062178             0.013055
C             9.800000            -4.849742             0.026540
H             9.650000            -2.684679             0.000562
C            11.200000            -4.849742             0.048498
C             9.800000            -7.274613             0.095170
C            11.200000            -7.274613             0.029870
C            11.900000            -6.062178             0.061268
H            11.750000            -3.897114             0.069171
C            13.300000            -6.062178             0.050229
C            11.900000            -8.487049             0.040284
C            13.300000            -8.487049             0.087972
C            14.000000            -7.274613             0.088487
H            13.850000            -5.109550             0.013353
H            13.850000            -9.439677             0.020610
H            15.100000            -7.274613             0.061639
C            -2.800000             0.000000             0.042702
C            -3.500000            -1.212436             0.084019
C            -2.800000            -2.424871             0.001654
C            -1.400000            -2.424871             0.077452
H            -3.350000             0.952628             0.037960
C            -0.700000            -3.637307             0.001232
C             0.700000            -3.637307             0.060313
C             1.400000            -4.849742             0.033097
C             2.800000            -4.849742             0.075270
C             3.500000            -6.062178             0.061280
C             4.900000            -6.062178             0.000927
C             5.600000            -7.274613             0.099688
C             7.000000            -7.274613             0.089443
C             7.700000            -8.487049             0.004076
C             9.100000            -8.487049             0.073684
C             9.800000            -9.699485             0.026045
C            11.200000            -9.699485             0.088918
H            11.750000           -10.652112             0.092413
C            -4.900000            -1.212436             0.013082
C            -5.600000            -2.424871             0.013462
C            -4.900000            -3.637307             0.061140
C            -3.500000            -3.637307             0.012552
H            -5.450000            -0.259808             0.085071
B            -2.800000            -4.849742             0.048169
N            -1.400000            -4.849742             0.002860
C            -0.700000            -6.062178             0.037516
C             0.700000            -6.062178             0.088243
C             1.400000            -7.274613             0.027283
C             2.800000            -7.274613             0.004987
C             3.500000            -8.487049             0.043760
C             4.900000            -8.487049             0.088523
C             5.600000            -9.699485             0.016550
C             7.000000            -9.699485             0.005518
C             7.700000           -10.911920             0.048164
C             9.100000           -10.911920             0.095332
H             9.650000           -11.864548             0.056130
C            -7.000000            -2.424871             0.061252
C            -7.700000            -3.637307             0.071066
C            -7.000000            -4.849742             0.087629
C            -5.600000            -4.849742             0.042482
H            -7.550000            -1.472243             0.002675
C            -4.900000            -6.062178             0.057995
C            -3.500000            -6.062178             0.038058
C            -2.800000            -7.274613             0.093264
C            -1.400000            -7.274613             0.069414
C            -0.700000            -8.487049             0.018386
C             0.700000            -8.487049             0.057802
C             1.400000            -9.699485             0.086805
C             2.800000            -9.699485             0.087401
C             3.500000           -10.911920             0.015603
C             4.900000           -10.911920             0.000752
C             5.600000           -12.124356             0.083290
C             7.000000           -12.124356             0.081856
H             7.550000           -13.076984             0.028662
C            -9.100000            -3.637307             0.024044
C            -9.800000            -4.849742             0.051996
C            -9.100000            -6.062178             0.017157
C            -7.700000            -6.062178             0.044956
H            -9.650000            -2.684679             0.005199
C            -7.000000            -7.274613             0.098480
C            -5.600000            -7.274613             0.057389
C            -4.900000            -8.487049             0.061990
C            -3.500000            -8.487049             0.073931
C            -2.800000            -9.699485             0.019264
C            -1.400000            -9.699485             0.095695
C            -0.700000           -10.911920             0.039379
C             0.700000           -10.911920             0.071429
C             1.400000           -12.124356             0.004384
C             2.800000           -12.124356             0.016040
C             3.500000           -13.336791             0.050216
C             4.900000           -13.336791             0.080431
H             5.450000           -14.289419             0.049452
C           -11.200000            -4.849742             0.050441
C           -11.900000            -6.062178             0.007189
C           -11.200000            -7.274613             0.044266
C            -9.800000            -7.274613             0.073333
H           -11.750000            -3.897114             0.083351
C            -9.100000            -8.487049             0.008799
C            -7.700000            -8.487049             0.046097
C            -7.000000            -9.699485             0.056643
C            -5.600000            -9.699485             0.052905
C            -4.900000           -10.911920             0.066489
C            -3.500000           -10.911920             0.078001
C            -2.800000           -12.124356             0.079137
C            -1.400000           -12.124356             0.075543
C            -0.700000           -13.336791             0.010133
C             0.700000           -13.336791             0.091746
C             1.400000           -14.549227             0.099022
C             2.800000           -14.549227             0.046576
H             3.350000           -15.501855             0.020874
C           -13.300000            -6.062178             0.044114
C           -14.000000            -7.274613             0.078125
C           -13.300000            -8.487049             0.098032
C           -11.900000            -8.487049             0.008206
H           -13.850000            -5.109550             0.011470
H           -15.100000            -7.274613             0.034942
H           -13.850000            -9.439677             0.059494
C           -11.200000            -9.699485             0.063795
C            -9.800000            -9.699485             0.025408
H           -11.750000           -10.652112             0.003755
C            -9.100000           -10.911920             0.016711
C            -7.700000           -10.911920             0.047001
H            -9.650000           -11.864548             0.066647
C            -7.000000           -12.124356             0.010244
C            -5.600000           -12.124356             0.099301
H            -7.550000           -13.076984             0.071317
C            -4.900000           -13.336791             0.034553
C            -3.500000           -13.336791             0.034887
H            -5.450000           -14.289419             0.070872
C            -2.800000           -14.549227             0.074539
C            -1.400000           -14.549227             0.094478
H            -3.350000           -15.501855             0.080087
C            -0.700000           -15.761662             0.014922
C             0.700000           -15.761662             0.067386
H            -1.250000           -16.714290             0.016483
H             1.250000           -16.714290             0.097777
