156
isomero_66_52
C             0.700000             1.212436             0.085524
C            -0.700000             1.212436             0.057486
C            -1.400000             0.000000             0.055247
C            -0.700000            -1.212436             0.043585
C             0.700000            -1.212436             0.029790
C             1.400000            -0.000000             0.042636
H             1.250000             2.165064             0.061457
H            -1.250000             2.165064             0.005069
C             2.800000             0.000000             0.006831
C             1.400000            -2.424871             0.098145
C             2.800000            -2.424871             0.060613
C             3.500000            -1.212436             0.002403
H             3.350000             0.952628             0.055892
C             4.900000            -1.212436             0.033724
C             3.500000            -3.637307             0.050229
C             4.900000            -3.637307             0.018976
C             5.600000            -2.424871             0.051461
H             5.450000            -0.259808             0.045292
C             7.000000            -2.424871             0.030382
C             5.600000            -4.849742             0.024137
C             7.000000            -4.849742             0.012036
C             7.700000            -3.637307             0.024502
H             7.550000            -1.472243             0.020371
C             9.100000            -3.637307             0.075736
C             7.700000            -6.062178             0.083504
C             9.100000            -6.062178             0.060521
C             9.800000            -4.849742             0.024146
H             9.650000            -2.684679             0.033929
C            11.200000            -4.849742             0.084416
C             9.800000            -7.274613             0.015348
C            11.200000            -7.274613             0.075323
C            11.900000            -6.062178             0.055034
H            11.750000            -3.897114             0.019417
C            13.300000            -6.062178             0.028660
C            11.900000            -8.487049             0.005861
C            13.300000            -8.487049             0.090652
C            14.000000            -7.274613             0.074287
H            13.850000            -5.109550             0.023830
H            13.850000            -9.439677             0.089472
H            15.100000            -7.274613             0.018051
C            -2.800000             0.000000             0.079560
C            -3.500000            -1.212436             0.066276
C            -2.800000            -2.424871             0.089268
C            -1.400000            -2.424871             0.014654
H            -3.350000             0.952628             0.013493
C            -0.700000            -3.637307             0.070022
C             0.700000            -3.637307             0.055201
C             1.400000            -4.849742             0.059518
C             2.800000            -4.849742             0.070556
C             3.500000            -6.062178             0.024624
C             4.900000            -6.062178             0.050610
C             5.600000            -7.274613             0.092479
C             7.000000            -7.274613             0.036743
C             7.700000            -8.487049             0.010671
C             9.100000            -8.487049             0.088103
C             9.800000            -9.699485             0.051640
C            11.200000            -9.699485             0.018884
H            11.750000           -10.652112             0.021403
C            -4.900000            -1.212436             0.059136
C            -5.600000            -2.424871             0.003242
C            -4.900000            -3.637307             0.065021
C            -3.500000            -3.637307             0.093750
H            -5.450000            -0.259808             0.082151
C            -2.800000            -4.849742             0.091556
C            -1.400000            -4.849742             0.076837
C            -0.700000            -6.062178             0.023917
C             0.700000            -6.062178             0.017056
C             1.400000            -7.274613             0.087775
C             2.800000            -7.274613             0.054319
C             3.500000            -8.487049             0.095242
C             4.900000            -8.487049             0.054587
C             5.600000            -9.699485             0.093000
C             7.000000            -9.699485             0.069585
C             7.700000           -10.911920             0.005936
C             9.100000           -10.911920             0.014081
H             9.650000           -11.864548             0.055906
C            -7.000000            -2.424871             0.085814
C            -7.700000            -3.637307             0.005635
C            -7.000000            -4.849742             0.039547
C            -5.600000            -4.849742             0.039729
H            -7.550000            -1.472243             0.079468
N            -4.900000            -6.062178             0.086133
C            -3.500000            -6.062178             0.085158
C            -2.800000            -7.274613             0.043092
C            -1.400000            -7.274613             0.084970
C            -0.700000            -8.487049             0.034318
C             0.700000            -8.487049             0.061007
C             1.400000            -9.699485             0.044132
C             2.800000            -9.699485             0.022594
C             3.500000           -10.911920             0.079714
C             4.900000           -10.911920             0.053214
C             5.600000           -12.124356             0.082788
C             7.000000           -12.124356             0.092641
H             7.550000           -13.076984             0.013242
C            -9.100000            -3.637307             0.017364
C            -9.800000            -4.849742             0.027659
C            -9.100000            -6.062178             0.039114
C            -7.700000            -6.062178             0.046958
H            -9.650000            -2.684679             0.054255
C            -7.000000            -7.274613             0.009174
B            -5.600000            -7.274613             0.042592
C            -4.900000            -8.487049             0.074769
C            -3.500000            -8.487049             0.074366
C            -2.800000            -9.699485             0.083479
C            -1.400000            -9.699485             0.070385
C            -0.700000           -10.911920             0.060343
C             0.700000           -10.911920             0.043432
C             1.400000           -12.124356             0.013774
C             2.800000           -12.124356             0.069030
C             3.500000           -13.336791             0.060204
C             4.900000           -13.336791             0.085179
H             5.450000           -14.289419             0.027085
C           -11.200000            -4.849742             0.096422
C           -11.900000            -6.062178             0.015159
C           -11.200000            -7.274613             0.005240
C            -9.800000            -7.274613             0.069701
H           -11.750000            -3.897114             0.079148
C            -9.100000            -8.487049             0.040895
C            -7.700000            -8.487049             0.069598
C            -7.000000            -9.699485             0.043205
C            -5.600000            -9.699485             0.024046
C            -4.900000           -10.911920             0.072156
C            -3.500000           -10.911920             0.091022
C            -2.800000           -12.124356             0.031278
C            -1.400000           -12.124356             0.086639
C            -0.700000           -13.336791             0.045290
C             0.700000           -13.336791             0.096920
C             1.400000           -14.549227             0.056050
C             2.800000           -14.549227             0.054774
H             3.350000           -15.501855             0.092469
C           -13.300000            -6.062178             0.022631
C           -14.000000            -7.274613             0.070292
C           -13.300000            -8.487049             0.091312
C           -11.900000            -8.487049             0.067025
H           -13.850000            -5.109550             0.083452
H           -15.100000            -7.274613             0.050880
H           -13.850000            -9.439677             0.087302
C           -11.200000            -9.699485             0.094663
C            -9.800000            -9.699485             0.040531
H           -11.750000           -10.652112             0.007301
C            -9.100000           -10.911920             0.095080
C            -7.700000           -10.911920             0.061830
H            -9.650000           -11.864548             0.066342
C            -7.000000           -12.124356             0.039631
C            -5.600000           -12.124356             0.044557
H            -7.550000           -13.076984             0.012107
C            -4.900000           -13.336791             0.087932
C            -3.500000           -13.336791             0.023356
H            -5.450000           -14.289419             0.095315
C            -2.800000           -14.549227             0.004799
C            -1.400000           -14.549227             0.021547
H            -3.350000           -15.501855             0.055317
C            -0.700000           -15.761662             0.088836
C             0.700000           -15.761662             0.084443
H            -1.250000           -16.714290             0.097474
H             1.250000           -16.714290             0.016398
