156
isomero_52_39
C             0.700000             1.212436             0.062799
C            -0.700000             1.212436             0.017045
C            -1.400000             0.000000             0.087262
C            -0.700000            -1.212436             0.097778
C             0.700000            -1.212436             0.008008
C             1.400000            -0.000000             0.051260
H             1.250000             2.165064             0.059529
H            -1.250000             2.165064             0.019047
C             2.800000             0.000000             0.025030
C             1.400000            -2.424871             0.012780
C             2.800000            -2.424871             0.056072
C             3.500000            -1.212436             0.008273
H             3.350000             0.952628             0.083250
C             4.900000            -1.212436             0.098157
C             3.500000            -3.637307             0.061053
C             4.900000            -3.637307             0.050411
C             5.600000            -2.424871             0.048169
H             5.450000            -0.259808             0.037026
C             7.000000            -2.424871             0.021394
C             5.600000            -4.849742             0.003827
C             7.000000            -4.849742             0.053655
C             7.700000            -3.637307             0.003498
H             7.550000            -1.472243             0.035870
C             9.100000            -3.637307             0.082399
C             7.700000            -6.062178             0.002455
C             9.100000            -6.062178             0.024485
C             9.800000            -4.849742             0.082747
H             9.650000            -2.684679             0.066764
C            11.200000            -4.849742             0.062871
C             9.800000            -7.274613             0.011051
C            11.200000            -7.274613             0.083333
C            11.900000            -6.062178             0.065878
H            11.750000            -3.897114             0.031286
C            13.300000            -6.062178             0.057347
C            11.900000            -8.487049             0.086803
C            13.300000            -8.487049             0.004684
C            14.000000            -7.274613             0.016792
H            13.850000            -5.109550             0.077388
H            13.850000            -9.439677             0.029283
H            15.100000            -7.274613             0.039626
C            -2.800000             0.000000             0.007678
C            -3.500000            -1.212436             0.053555
C            -2.800000            -2.424871             0.099726
C            -1.400000            -2.424871             0.078803
H            -3.350000             0.952628             0.094707
C            -0.700000            -3.637307             0.034435
C             0.700000            -3.637307             0.032581
C             1.400000            -4.849742             0.080176
C             2.800000            -4.849742             0.019685
C             3.500000            -6.062178             0.095244
C             4.900000            -6.062178             0.085232
C             5.600000            -7.274613             0.081893
C             7.000000            -7.274613             0.031832
C             7.700000            -8.487049             0.003516
C             9.100000            -8.487049             0.021985
C             9.800000            -9.699485             0.014191
C            11.200000            -9.699485             0.002926
H            11.750000           -10.652112             0.004488
C            -4.900000            -1.212436             0.070202
C            -5.600000            -2.424871             0.062898
C            -4.900000            -3.637307             0.049039
C            -3.500000            -3.637307             0.044814
H            -5.450000            -0.259808             0.039682
C            -2.800000            -4.849742             0.067331
C            -1.400000            -4.849742             0.067141
C            -0.700000            -6.062178             0.084692
C             0.700000            -6.062178             0.070139
C             1.400000            -7.274613             0.040961
C             2.800000            -7.274613             0.098083
C             3.500000            -8.487049             0.038666
C             4.900000            -8.487049             0.099750
C             5.600000            -9.699485             0.040291
C             7.000000            -9.699485             0.028985
C             7.700000           -10.911920             0.009627
C             9.100000           -10.911920             0.054238
H             9.650000           -11.864548             0.097487
C            -7.000000            -2.424871             0.094275
C            -7.700000            -3.637307             0.051596
C            -7.000000            -4.849742             0.056020
N            -5.600000            -4.849742             0.074529
H            -7.550000            -1.472243             0.051019
B            -4.900000            -6.062178             0.012583
C            -3.500000            -6.062178             0.062246
C            -2.800000            -7.274613             0.023506
C            -1.400000            -7.274613             0.016575
C            -0.700000            -8.487049             0.004410
C             0.700000            -8.487049             0.059574
C             1.400000            -9.699485             0.061073
C             2.800000            -9.699485             0.055032
C             3.500000           -10.911920             0.074765
C             4.900000           -10.911920             0.008320
C             5.600000           -12.124356             0.074176
C             7.000000           -12.124356             0.065430
H             7.550000           -13.076984             0.069294
C            -9.100000            -3.637307             0.038440
C            -9.800000            -4.849742             0.067643
C            -9.100000            -6.062178             0.001107
C            -7.700000            -6.062178             0.096504
H            -9.650000            -2.684679             0.007214
C            -7.000000            -7.274613             0.071601
C            -5.600000            -7.274613             0.044376
C            -4.900000            -8.487049             0.021173
C            -3.500000            -8.487049             0.075632
C            -2.800000            -9.699485             0.062313
C            -1.400000            -9.699485             0.073198
C            -0.700000           -10.911920             0.029258
C             0.700000           -10.911920             0.059871
C             1.400000           -12.124356             0.042659
C             2.800000           -12.124356             0.000312
C             3.500000           -13.336791             0.053514
C             4.900000           -13.336791             0.072776
H             5.450000           -14.289419             0.018773
C           -11.200000            -4.849742             0.023782
C           -11.900000            -6.062178             0.024996
C           -11.200000            -7.274613             0.090084
C            -9.800000            -7.274613             0.016501
H           -11.750000            -3.897114             0.072596
C            -9.100000            -8.487049             0.067505
C            -7.700000            -8.487049             0.088769
C            -7.000000            -9.699485             0.009498
C            -5.600000            -9.699485             0.083266
C            -4.900000           -10.911920             0.092801
C            -3.500000           -10.911920             0.053688
C            -2.800000           -12.124356             0.059506
C            -1.400000           -12.124356             0.012281
C            -0.700000           -13.336791             0.076675
C             0.700000           -13.336791             0.078144
C             1.400000           -14.549227             0.040124
C             2.800000           -14.549227             0.006348
H             3.350000           -15.501855             0.061852
C           -13.300000            -6.062178             0.064404
C           -14.000000            -7.274613             0.093744
C           -13.300000            -8.487049             0.006919
C           -11.900000            -8.487049             0.003611
H           -13.850000            -5.109550             0.077700
H           -15.100000            -7.274613             0.022401
H           -13.850000            -9.439677             0.051167
C           -11.200000            -9.699485             0.024494
C            -9.800000            -9.699485             0.092340
H           -11.750000           -10.652112             0.036702
C            -9.100000           -10.911920             0.065026
C            -7.700000           -10.911920             0.053689
H            -9.650000           -11.864548             0.017095
C            -7.000000           -12.124356             0.002365
C            -5.600000           -12.124356             0.062500
H            -7.550000           -13.076984             0.013651
C            -4.900000           -13.336791             0.011368
C            -3.500000           -13.336791             0.004612
H            -5.450000           -14.289419             0.057210
C            -2.800000           -14.549227             0.054947
C            -1.400000           -14.549227             0.000694
H            -3.350000           -15.501855             0.060857
C            -0.700000           -15.761662             0.097070
C             0.700000           -15.761662             0.060182
H            -1.250000           -16.714290             0.048290
H             1.250000           -16.714290             0.087425
