156
isomero_18_17
C             0.700000             1.212436             0.094877
C            -0.700000             1.212436             0.036184
C            -1.400000             0.000000             0.060743
C            -0.700000            -1.212436             0.053964
C             0.700000            -1.212436             0.089304
C             1.400000            -0.000000             0.034696
H             1.250000             2.165064             0.010147
H            -1.250000             2.165064             0.087581
C             2.800000             0.000000             0.057630
C             1.400000            -2.424871             0.034844
C             2.800000            -2.424871             0.040092
C             3.500000            -1.212436             0.084943
H             3.350000             0.952628             0.046584
C             4.900000            -1.212436             0.033239
C             3.500000            -3.637307             0.032005
C             4.900000            -3.637307             0.096872
C             5.600000            -2.424871             0.057579
H             5.450000            -0.259808             0.093486
C             7.000000            -2.424871             0.043360
C             5.600000            -4.849742             0.012524
C             7.000000            -4.849742             0.020934
C             7.700000            -3.637307             0.005791
H             7.550000            -1.472243             0.032972
C             9.100000            -3.637307             0.083303
C             7.700000            -6.062178             0.006329
C             9.100000            -6.062178             0.083508
C             9.800000            -4.849742             0.013278
H             9.650000            -2.684679             0.083954
C            11.200000            -4.849742             0.018197
C             9.800000            -7.274613             0.066348
C            11.200000            -7.274613             0.075009
C            11.900000            -6.062178             0.066294
H            11.750000            -3.897114             0.021487
C            13.300000            -6.062178             0.049983
C            11.900000            -8.487049             0.080900
C            13.300000            -8.487049             0.028780
C            14.000000            -7.274613             0.056367
H            13.850000            -5.109550             0.017567
H            13.850000            -9.439677             0.006435
H            15.100000            -7.274613             0.078865
C            -2.800000             0.000000             0.058210
C            -3.500000            -1.212436             0.090174
B            -2.800000            -2.424871             0.029179
N            -1.400000            -2.424871             0.064063
H            -3.350000             0.952628             0.087096
C            -0.700000            -3.637307             0.093255
C             0.700000            -3.637307             0.043062
C             1.400000            -4.849742             0.002780
C             2.800000            -4.849742             0.075562
C             3.500000            -6.062178             0.058332
C             4.900000            -6.062178             0.005178
C             5.600000            -7.274613             0.070106
C             7.000000            -7.274613             0.038714
C             7.700000            -8.487049             0.036300
C             9.100000            -8.487049             0.084054
C             9.800000            -9.699485             0.032106
C            11.200000            -9.699485             0.035405
H            11.750000           -10.652112             0.015201
C            -4.900000            -1.212436             0.066499
C            -5.600000            -2.424871             0.076284
C            -4.900000            -3.637307             0.026588
C            -3.500000            -3.637307             0.032250
H            -5.450000            -0.259808             0.087493
C            -2.800000            -4.849742             0.032156
C            -1.400000            -4.849742             0.079911
C            -0.700000            -6.062178             0.026870
C             0.700000            -6.062178             0.042303
C             1.400000            -7.274613             0.034640
C             2.800000            -7.274613             0.066983
C             3.500000            -8.487049             0.076836
C             4.900000            -8.487049             0.022113
C             5.600000            -9.699485             0.010559
C             7.000000            -9.699485             0.052958
C             7.700000           -10.911920             0.052116
C             9.100000           -10.911920             0.098851
H             9.650000           -11.864548             0.083861
C            -7.000000            -2.424871             0.016447
C            -7.700000            -3.637307             0.010075
C            -7.000000            -4.849742             0.061098
C            -5.600000            -4.849742             0.012361
H            -7.550000            -1.472243             0.089262
C            -4.900000            -6.062178             0.076220
C            -3.500000            -6.062178             0.015381
C            -2.800000            -7.274613             0.094773
C            -1.400000            -7.274613             0.063540
C            -0.700000            -8.487049             0.080295
C             0.700000            -8.487049             0.068353
C             1.400000            -9.699485             0.016979
C             2.800000            -9.699485             0.023896
C             3.500000           -10.911920             0.007040
C             4.900000           -10.911920             0.032522
C             5.600000           -12.124356             0.035658
C             7.000000           -12.124356             0.046878
H             7.550000           -13.076984             0.075036
C            -9.100000            -3.637307             0.004175
C            -9.800000            -4.849742             0.075830
C            -9.100000            -6.062178             0.009372
C            -7.700000            -6.062178             0.067623
H            -9.650000            -2.684679             0.084167
C            -7.000000            -7.274613             0.028018
C            -5.600000            -7.274613             0.079016
C            -4.900000            -8.487049             0.008605
C            -3.500000            -8.487049             0.013941
C            -2.800000            -9.699485             0.061915
C            -1.400000            -9.699485             0.012317
C            -0.700000           -10.911920             0.022868
C             0.700000           -10.911920             0.063969
C             1.400000           -12.124356             0.011760
C             2.800000           -12.124356             0.006466
C             3.500000           -13.336791             0.060070
C             4.900000           -13.336791             0.068446
H             5.450000           -14.289419             0.080156
C           -11.200000            -4.849742             0.014474
C           -11.900000            -6.062178             0.020781
C           -11.200000            -7.274613             0.079760
C            -9.800000            -7.274613             0.077049
H           -11.750000            -3.897114             0.096942
C            -9.100000            -8.487049             0.008243
C            -7.700000            -8.487049             0.098032
C            -7.000000            -9.699485             0.070547
C            -5.600000            -9.699485             0.073061
C            -4.900000           -10.911920             0.023591
C            -3.500000           -10.911920             0.083699
C            -2.800000           -12.124356             0.061201
C            -1.400000           -12.124356             0.071330
C            -0.700000           -13.336791             0.080339
C             0.700000           -13.336791             0.022557
C             1.400000           -14.549227             0.091423
C             2.800000           -14.549227             0.092835
H             3.350000           -15.501855             0.074183
C           -13.300000            -6.062178             0.046230
C           -14.000000            -7.274613             0.032881
C           -13.300000            -8.487049             0.081229
C           -11.900000            -8.487049             0.027017
H           -13.850000            -5.109550             0.015736
H           -15.100000            -7.274613             0.017922
H           -13.850000            -9.439677             0.027828
C           -11.200000            -9.699485             0.062985
C            -9.800000            -9.699485             0.013381
H           -11.750000           -10.652112             0.080561
C            -9.100000           -10.911920             0.084756
C            -7.700000           -10.911920             0.085010
H            -9.650000           -11.864548             0.032980
C            -7.000000           -12.124356             0.020702
C            -5.600000           -12.124356             0.088489
H            -7.550000           -13.076984             0.013174
C            -4.900000           -13.336791             0.053933
C            -3.500000           -13.336791             0.016817
H            -5.450000           -14.289419             0.077415
C            -2.800000           -14.549227             0.063304
C            -1.400000           -14.549227             0.076165
H            -3.350000           -15.501855             0.023314
C            -0.700000           -15.761662             0.002777
C             0.700000           -15.761662             0.000851
H            -1.250000           -16.714290             0.091949
H             1.250000           -16.714290             0.051153
