156
isomero_64_50
C             0.700000             1.212436             0.099655
C            -0.700000             1.212436             0.098164
C            -1.400000             0.000000             0.032764
C            -0.700000            -1.212436             0.026098
C             0.700000            -1.212436             0.075993
C             1.400000            -0.000000             0.013856
H             1.250000             2.165064             0.061567
H            -1.250000             2.165064             0.062851
C             2.800000             0.000000             0.014157
C             1.400000            -2.424871             0.041645
C             2.800000            -2.424871             0.034580
C             3.500000            -1.212436             0.088294
H             3.350000             0.952628             0.028168
C             4.900000            -1.212436             0.003048
C             3.500000            -3.637307             0.015424
C             4.900000            -3.637307             0.099136
C             5.600000            -2.424871             0.077103
H             5.450000            -0.259808             0.003426
C             7.000000            -2.424871             0.015025
C             5.600000            -4.849742             0.066967
C             7.000000            -4.849742             0.057829
C             7.700000            -3.637307             0.017298
H             7.550000            -1.472243             0.057250
C             9.100000            -3.637307             0.049320
C             7.700000            -6.062178             0.012558
C             9.100000            -6.062178             0.021332
C             9.800000            -4.849742             0.044744
H             9.650000            -2.684679             0.014679
C            11.200000            -4.849742             0.077603
C             9.800000            -7.274613             0.082969
C            11.200000            -7.274613             0.036025
C            11.900000            -6.062178             0.057508
H            11.750000            -3.897114             0.092623
C            13.300000            -6.062178             0.097446
C            11.900000            -8.487049             0.064136
C            13.300000            -8.487049             0.042434
C            14.000000            -7.274613             0.048256
H            13.850000            -5.109550             0.035188
H            13.850000            -9.439677             0.035514
H            15.100000            -7.274613             0.034628
C            -2.800000             0.000000             0.010612
C            -3.500000            -1.212436             0.058627
C            -2.800000            -2.424871             0.039012
C            -1.400000            -2.424871             0.083344
H            -3.350000             0.952628             0.064296
C            -0.700000            -3.637307             0.075767
C             0.700000            -3.637307             0.090783
C             1.400000            -4.849742             0.056566
C             2.800000            -4.849742             0.061130
C             3.500000            -6.062178             0.001375
C             4.900000            -6.062178             0.028260
C             5.600000            -7.274613             0.029311
C             7.000000            -7.274613             0.006742
C             7.700000            -8.487049             0.033739
C             9.100000            -8.487049             0.024361
C             9.800000            -9.699485             0.003858
C            11.200000            -9.699485             0.055475
H            11.750000           -10.652112             0.087698
C            -4.900000            -1.212436             0.061885
C            -5.600000            -2.424871             0.043565
C            -4.900000            -3.637307             0.036927
C            -3.500000            -3.637307             0.096071
H            -5.450000            -0.259808             0.055849
C            -2.800000            -4.849742             0.034721
C            -1.400000            -4.849742             0.047438
N            -0.700000            -6.062178             0.047230
C             0.700000            -6.062178             0.021852
C             1.400000            -7.274613             0.016460
C             2.800000            -7.274613             0.053271
C             3.500000            -8.487049             0.088864
C             4.900000            -8.487049             0.034171
C             5.600000            -9.699485             0.054186
C             7.000000            -9.699485             0.069216
C             7.700000           -10.911920             0.018202
C             9.100000           -10.911920             0.091474
H             9.650000           -11.864548             0.017797
C            -7.000000            -2.424871             0.073551
C            -7.700000            -3.637307             0.018429
C            -7.000000            -4.849742             0.002997
C            -5.600000            -4.849742             0.013451
H            -7.550000            -1.472243             0.012067
C            -4.900000            -6.062178             0.006012
C            -3.500000            -6.062178             0.096285
C            -2.800000            -7.274613             0.055060
B            -1.400000            -7.274613             0.025936
C            -0.700000            -8.487049             0.042465
C             0.700000            -8.487049             0.041126
C             1.400000            -9.699485             0.032405
C             2.800000            -9.699485             0.007579
C             3.500000           -10.911920             0.087387
C             4.900000           -10.911920             0.081483
C             5.600000           -12.124356             0.043913
C             7.000000           -12.124356             0.002658
H             7.550000           -13.076984             0.051378
C            -9.100000            -3.637307             0.022378
C            -9.800000            -4.849742             0.069019
C            -9.100000            -6.062178             0.057568
C            -7.700000            -6.062178             0.070755
H            -9.650000            -2.684679             0.054664
C            -7.000000            -7.274613             0.068589
C            -5.600000            -7.274613             0.063608
C            -4.900000            -8.487049             0.032270
C            -3.500000            -8.487049             0.071218
C            -2.800000            -9.699485             0.013890
C            -1.400000            -9.699485             0.061996
C            -0.700000           -10.911920             0.063871
C             0.700000           -10.911920             0.011031
C             1.400000           -12.124356             0.092618
C             2.800000           -12.124356             0.062615
C             3.500000           -13.336791             0.015818
C             4.900000           -13.336791             0.009651
H             5.450000           -14.289419             0.019576
C           -11.200000            -4.849742             0.030091
C           -11.900000            -6.062178             0.006108
C           -11.200000            -7.274613             0.059027
C            -9.800000            -7.274613             0.082311
H           -11.750000            -3.897114             0.051438
C            -9.100000            -8.487049             0.022859
C            -7.700000            -8.487049             0.077855
C            -7.000000            -9.699485             0.047417
C            -5.600000            -9.699485             0.030054
C            -4.900000           -10.911920             0.057117
C            -3.500000           -10.911920             0.020594
C            -2.800000           -12.124356             0.049359
C            -1.400000           -12.124356             0.070647
C            -0.700000           -13.336791             0.063299
C             0.700000           -13.336791             0.002847
C             1.400000           -14.549227             0.035809
C             2.800000           -14.549227             0.078339
H             3.350000           -15.501855             0.028911
C           -13.300000            -6.062178             0.052118
C           -14.000000            -7.274613             0.028317
C           -13.300000            -8.487049             0.092099
C           -11.900000            -8.487049             0.026664
H           -13.850000            -5.109550             0.085734
H           -15.100000            -7.274613             0.040440
H           -13.850000            -9.439677             0.092330
C           -11.200000            -9.699485             0.093466
C            -9.800000            -9.699485             0.067350
H           -11.750000           -10.652112             0.087553
C            -9.100000           -10.911920             0.003896
C            -7.700000           -10.911920             0.036695
H            -9.650000           -11.864548             0.016946
C            -7.000000           -12.124356             0.065427
C            -5.600000           -12.124356             0.055684
H            -7.550000           -13.076984             0.082386
C            -4.900000           -13.336791             0.097804
C            -3.500000           -13.336791             0.063575
H            -5.450000           -14.289419             0.079677
C            -2.800000           -14.549227             0.051263
C            -1.400000           -14.549227             0.004145
H            -3.350000           -15.501855             0.025447
C            -0.700000           -15.761662             0.024727
C             0.700000           -15.761662             0.080422
H            -1.250000           -16.714290             0.096322
H             1.250000           -16.714290             0.055505
