156
isomero_39_40
C             0.700000             1.212436             0.074529
C            -0.700000             1.212436             0.086976
C            -1.400000             0.000000             0.087246
C            -0.700000            -1.212436             0.026483
C             0.700000            -1.212436             0.037189
C             1.400000            -0.000000             0.097325
H             1.250000             2.165064             0.069353
H            -1.250000             2.165064             0.056549
C             2.800000             0.000000             0.027697
C             1.400000            -2.424871             0.039985
C             2.800000            -2.424871             0.046712
C             3.500000            -1.212436             0.045766
H             3.350000             0.952628             0.000666
C             4.900000            -1.212436             0.060714
C             3.500000            -3.637307             0.013339
C             4.900000            -3.637307             0.002594
C             5.600000            -2.424871             0.084039
H             5.450000            -0.259808             0.044266
C             7.000000            -2.424871             0.084606
C             5.600000            -4.849742             0.094802
C             7.000000            -4.849742             0.099061
C             7.700000            -3.637307             0.072183
H             7.550000            -1.472243             0.046651
C             9.100000            -3.637307             0.073564
C             7.700000            -6.062178             0.094985
C             9.100000            -6.062178             0.004163
C             9.800000            -4.849742             0.003135
H             9.650000            -2.684679             0.035838
C            11.200000            -4.849742             0.031274
C             9.800000            -7.274613             0.012269
C            11.200000            -7.274613             0.081006
C            11.900000            -6.062178             0.008603
H            11.750000            -3.897114             0.053774
C            13.300000            -6.062178             0.005791
C            11.900000            -8.487049             0.017756
C            13.300000            -8.487049             0.061844
C            14.000000            -7.274613             0.092182
H            13.850000            -5.109550             0.033687
H            13.850000            -9.439677             0.042915
H            15.100000            -7.274613             0.028743
C            -2.800000             0.000000             0.029437
C            -3.500000            -1.212436             0.057226
C            -2.800000            -2.424871             0.073814
C            -1.400000            -2.424871             0.019187
H            -3.350000             0.952628             0.012759
C            -0.700000            -3.637307             0.068264
C             0.700000            -3.637307             0.073920
C             1.400000            -4.849742             0.052711
C             2.800000            -4.849742             0.007173
C             3.500000            -6.062178             0.015843
C             4.900000            -6.062178             0.085187
C             5.600000            -7.274613             0.066841
C             7.000000            -7.274613             0.036200
C             7.700000            -8.487049             0.031033
C             9.100000            -8.487049             0.090791
C             9.800000            -9.699485             0.013822
C            11.200000            -9.699485             0.069539
H            11.750000           -10.652112             0.094214
C            -4.900000            -1.212436             0.033652
C            -5.600000            -2.424871             0.081115
C            -4.900000            -3.637307             0.024357
C            -3.500000            -3.637307             0.018155
H            -5.450000            -0.259808             0.099239
C            -2.800000            -4.849742             0.099318
C            -1.400000            -4.849742             0.071569
C            -0.700000            -6.062178             0.081784
C             0.700000            -6.062178             0.033318
C             1.400000            -7.274613             0.013235
C             2.800000            -7.274613             0.038478
C             3.500000            -8.487049             0.075575
C             4.900000            -8.487049             0.074246
C             5.600000            -9.699485             0.025494
C             7.000000            -9.699485             0.073384
C             7.700000           -10.911920             0.000247
C             9.100000           -10.911920             0.079592
H             9.650000           -11.864548             0.067809
C            -7.000000            -2.424871             0.014897
C            -7.700000            -3.637307             0.043430
N            -7.000000            -4.849742             0.020919
B            -5.600000            -4.849742             0.018762
H            -7.550000            -1.472243             0.096129
C            -4.900000            -6.062178             0.078583
C            -3.500000            -6.062178             0.030104
C            -2.800000            -7.274613             0.050259
C            -1.400000            -7.274613             0.037366
C            -0.700000            -8.487049             0.053151
C             0.700000            -8.487049             0.076683
C             1.400000            -9.699485             0.086363
C             2.800000            -9.699485             0.088152
C             3.500000           -10.911920             0.096218
C             4.900000           -10.911920             0.001578
C             5.600000           -12.124356             0.068731
C             7.000000           -12.124356             0.057068
H             7.550000           -13.076984             0.050478
C            -9.100000            -3.637307             0.035281
C            -9.800000            -4.849742             0.073559
C            -9.100000            -6.062178             0.026389
C            -7.700000            -6.062178             0.056840
H            -9.650000            -2.684679             0.090462
C            -7.000000            -7.274613             0.036807
C            -5.600000            -7.274613             0.016768
C            -4.900000            -8.487049             0.092912
C            -3.500000            -8.487049             0.020441
C            -2.800000            -9.699485             0.001492
C            -1.400000            -9.699485             0.073952
C            -0.700000           -10.911920             0.027475
C             0.700000           -10.911920             0.007095
C             1.400000           -12.124356             0.068479
C             2.800000           -12.124356             0.024905
C             3.500000           -13.336791             0.049873
C             4.900000           -13.336791             0.026921
H             5.450000           -14.289419             0.018244
C           -11.200000            -4.849742             0.049057
C           -11.900000            -6.062178             0.061728
C           -11.200000            -7.274613             0.060051
C            -9.800000            -7.274613             0.032253
H           -11.750000            -3.897114             0.040682
C            -9.100000            -8.487049             0.063585
C            -7.700000            -8.487049             0.060829
C            -7.000000            -9.699485             0.072574
C            -5.600000            -9.699485             0.064059
C            -4.900000           -10.911920             0.021300
C            -3.500000           -10.911920             0.066075
C            -2.800000           -12.124356             0.056180
C            -1.400000           -12.124356             0.088300
C            -0.700000           -13.336791             0.091867
C             0.700000           -13.336791             0.087559
C             1.400000           -14.549227             0.030822
C             2.800000           -14.549227             0.042231
H             3.350000           -15.501855             0.043813
C           -13.300000            -6.062178             0.008322
C           -14.000000            -7.274613             0.045409
C           -13.300000            -8.487049             0.091500
C           -11.900000            -8.487049             0.017494
H           -13.850000            -5.109550             0.036364
H           -15.100000            -7.274613             0.043841
H           -13.850000            -9.439677             0.066537
C           -11.200000            -9.699485             0.019459
C            -9.800000            -9.699485             0.013440
H           -11.750000           -10.652112             0.093914
C            -9.100000           -10.911920             0.074365
C            -7.700000           -10.911920             0.047863
H            -9.650000           -11.864548             0.048770
C            -7.000000           -12.124356             0.094424
C            -5.600000           -12.124356             0.077983
H            -7.550000           -13.076984             0.028294
C            -4.900000           -13.336791             0.006446
C            -3.500000           -13.336791             0.044531
H            -5.450000           -14.289419             0.024638
C            -2.800000           -14.549227             0.001383
C            -1.400000           -14.549227             0.027073
H            -3.350000           -15.501855             0.033658
C            -0.700000           -15.761662             0.072212
C             0.700000           -15.761662             0.020923
H            -1.250000           -16.714290             0.055957
H             1.250000           -16.714290             0.086678
