156
isomero_51_38
C             0.700000             1.212436             0.018319
C            -0.700000             1.212436             0.008570
C            -1.400000             0.000000             0.080090
C            -0.700000            -1.212436             0.001330
C             0.700000            -1.212436             0.060803
C             1.400000            -0.000000             0.074322
H             1.250000             2.165064             0.096812
H            -1.250000             2.165064             0.062199
C             2.800000             0.000000             0.015567
C             1.400000            -2.424871             0.043891
C             2.800000            -2.424871             0.031627
C             3.500000            -1.212436             0.047737
H             3.350000             0.952628             0.064848
C             4.900000            -1.212436             0.017131
C             3.500000            -3.637307             0.005476
C             4.900000            -3.637307             0.019462
C             5.600000            -2.424871             0.005289
H             5.450000            -0.259808             0.030450
C             7.000000            -2.424871             0.092840
C             5.600000            -4.849742             0.089200
C             7.000000            -4.849742             0.015268
C             7.700000            -3.637307             0.093875
H             7.550000            -1.472243             0.047451
C             9.100000            -3.637307             0.057800
C             7.700000            -6.062178             0.030509
C             9.100000            -6.062178             0.015654
C             9.800000            -4.849742             0.081853
H             9.650000            -2.684679             0.017678
C            11.200000            -4.849742             0.008910
C             9.800000            -7.274613             0.045167
C            11.200000            -7.274613             0.071996
C            11.900000            -6.062178             0.005454
H            11.750000            -3.897114             0.044954
C            13.300000            -6.062178             0.020333
C            11.900000            -8.487049             0.024873
C            13.300000            -8.487049             0.090343
C            14.000000            -7.274613             0.042601
H            13.850000            -5.109550             0.083766
H            13.850000            -9.439677             0.036010
H            15.100000            -7.274613             0.042030
C            -2.800000             0.000000             0.090137
C            -3.500000            -1.212436             0.093699
C            -2.800000            -2.424871             0.064478
C            -1.400000            -2.424871             0.021200
H            -3.350000             0.952628             0.059699
C            -0.700000            -3.637307             0.045814
C             0.700000            -3.637307             0.050473
C             1.400000            -4.849742             0.078299
C             2.800000            -4.849742             0.060023
C             3.500000            -6.062178             0.082976
C             4.900000            -6.062178             0.080305
C             5.600000            -7.274613             0.091796
C             7.000000            -7.274613             0.043236
C             7.700000            -8.487049             0.030453
C             9.100000            -8.487049             0.044540
C             9.800000            -9.699485             0.052929
C            11.200000            -9.699485             0.097303
H            11.750000           -10.652112             0.024920
C            -4.900000            -1.212436             0.035995
C            -5.600000            -2.424871             0.001384
C            -4.900000            -3.637307             0.008876
C            -3.500000            -3.637307             0.095296
H            -5.450000            -0.259808             0.020197
N            -2.800000            -4.849742             0.060281
C            -1.400000            -4.849742             0.082305
C            -0.700000            -6.062178             0.091454
C             0.700000            -6.062178             0.088637
C             1.400000            -7.274613             0.048327
C             2.800000            -7.274613             0.015633
C             3.500000            -8.487049             0.021417
C             4.900000            -8.487049             0.014029
C             5.600000            -9.699485             0.003985
C             7.000000            -9.699485             0.086736
C             7.700000           -10.911920             0.012771
C             9.100000           -10.911920             0.014108
H             9.650000           -11.864548             0.029782
C            -7.000000            -2.424871             0.072290
C            -7.700000            -3.637307             0.088322
C            -7.000000            -4.849742             0.023871
C            -5.600000            -4.849742             0.013403
H            -7.550000            -1.472243             0.096425
C            -4.900000            -6.062178             0.044735
B            -3.500000            -6.062178             0.082386
C            -2.800000            -7.274613             0.039465
C            -1.400000            -7.274613             0.062129
C            -0.700000            -8.487049             0.075895
C             0.700000            -8.487049             0.060564
C             1.400000            -9.699485             0.050794
C             2.800000            -9.699485             0.020316
C             3.500000           -10.911920             0.088650
C             4.900000           -10.911920             0.022760
C             5.600000           -12.124356             0.010116
C             7.000000           -12.124356             0.023866
H             7.550000           -13.076984             0.069365
C            -9.100000            -3.637307             0.002103
C            -9.800000            -4.849742             0.081563
C            -9.100000            -6.062178             0.020219
C            -7.700000            -6.062178             0.077068
H            -9.650000            -2.684679             0.024273
C            -7.000000            -7.274613             0.088532
C            -5.600000            -7.274613             0.035949
C            -4.900000            -8.487049             0.006142
C            -3.500000            -8.487049             0.075972
C            -2.800000            -9.699485             0.065130
C            -1.400000            -9.699485             0.040899
C            -0.700000           -10.911920             0.071939
C             0.700000           -10.911920             0.041474
C             1.400000           -12.124356             0.091518
C             2.800000           -12.124356             0.038564
C             3.500000           -13.336791             0.054310
C             4.900000           -13.336791             0.007321
H             5.450000           -14.289419             0.079794
C           -11.200000            -4.849742             0.082173
C           -11.900000            -6.062178             0.042095
C           -11.200000            -7.274613             0.068179
C            -9.800000            -7.274613             0.071674
H           -11.750000            -3.897114             0.009125
C            -9.100000            -8.487049             0.027300
C            -7.700000            -8.487049             0.020491
C            -7.000000            -9.699485             0.010399
C            -5.600000            -9.699485             0.065247
C            -4.900000           -10.911920             0.008671
C            -3.500000           -10.911920             0.074040
C            -2.800000           -12.124356             0.041795
C            -1.400000           -12.124356             0.065918
C            -0.700000           -13.336791             0.048084
C             0.700000           -13.336791             0.034890
C             1.400000           -14.549227             0.072609
C             2.800000           -14.549227             0.048741
H             3.350000           -15.501855             0.031147
C           -13.300000            -6.062178             0.038856
C           -14.000000            -7.274613             0.095378
C           -13.300000            -8.487049             0.034518
C           -11.900000            -8.487049             0.045882
H           -13.850000            -5.109550             0.066290
H           -15.100000            -7.274613             0.048124
H           -13.850000            -9.439677             0.063019
C           -11.200000            -9.699485             0.054084
C            -9.800000            -9.699485             0.003354
H           -11.750000           -10.652112             0.025471
C            -9.100000           -10.911920             0.076435
C            -7.700000           -10.911920             0.082719
H            -9.650000           -11.864548             0.098763
C            -7.000000           -12.124356             0.007565
C            -5.600000           -12.124356             0.037010
H            -7.550000           -13.076984             0.078886
C            -4.900000           -13.336791             0.015740
C            -3.500000           -13.336791             0.057425
H            -5.450000           -14.289419             0.029723
C            -2.800000           -14.549227             0.087688
C            -1.400000           -14.549227             0.085038
H            -3.350000           -15.501855             0.024806
C            -0.700000           -15.761662             0.089099
C             0.700000           -15.761662             0.098156
H            -1.250000           -16.714290             0.001809
H             1.250000           -16.714290             0.082920
