156
isomero_28_19
C             0.700000             1.212436             0.085901
C            -0.700000             1.212436             0.082628
C            -1.400000             0.000000             0.063620
C            -0.700000            -1.212436             0.027284
C             0.700000            -1.212436             0.051957
C             1.400000            -0.000000             0.020868
H             1.250000             2.165064             0.021638
H            -1.250000             2.165064             0.019734
C             2.800000             0.000000             0.020605
C             1.400000            -2.424871             0.065786
C             2.800000            -2.424871             0.058300
C             3.500000            -1.212436             0.096197
H             3.350000             0.952628             0.099703
C             4.900000            -1.212436             0.057624
C             3.500000            -3.637307             0.045067
C             4.900000            -3.637307             0.040396
C             5.600000            -2.424871             0.081669
H             5.450000            -0.259808             0.038521
C             7.000000            -2.424871             0.059865
C             5.600000            -4.849742             0.002820
C             7.000000            -4.849742             0.084966
C             7.700000            -3.637307             0.083586
H             7.550000            -1.472243             0.031167
C             9.100000            -3.637307             0.010782
C             7.700000            -6.062178             0.020323
C             9.100000            -6.062178             0.006159
C             9.800000            -4.849742             0.006678
H             9.650000            -2.684679             0.009910
C            11.200000            -4.849742             0.093664
C             9.800000            -7.274613             0.060332
C            11.200000            -7.274613             0.086304
C            11.900000            -6.062178             0.027834
H            11.750000            -3.897114             0.051359
C            13.300000            -6.062178             0.050016
C            11.900000            -8.487049             0.093340
C            13.300000            -8.487049             0.066006
C            14.000000            -7.274613             0.072987
H            13.850000            -5.109550             0.078943
H            13.850000            -9.439677             0.080588
H            15.100000            -7.274613             0.033333
C            -2.800000             0.000000             0.010873
C            -3.500000            -1.212436             0.067766
C            -2.800000            -2.424871             0.005265
C            -1.400000            -2.424871             0.069042
H            -3.350000             0.952628             0.067796
C            -0.700000            -3.637307             0.080017
C             0.700000            -3.637307             0.078631
C             1.400000            -4.849742             0.035508
C             2.800000            -4.849742             0.085630
C             3.500000            -6.062178             0.073704
C             4.900000            -6.062178             0.031748
C             5.600000            -7.274613             0.054357
C             7.000000            -7.274613             0.043067
C             7.700000            -8.487049             0.068240
C             9.100000            -8.487049             0.023064
C             9.800000            -9.699485             0.007100
C            11.200000            -9.699485             0.019586
H            11.750000           -10.652112             0.021735
C            -4.900000            -1.212436             0.001085
N            -5.600000            -2.424871             0.077185
B            -4.900000            -3.637307             0.050182
C            -3.500000            -3.637307             0.058731
H            -5.450000            -0.259808             0.043676
C            -2.800000            -4.849742             0.050231
C            -1.400000            -4.849742             0.019418
C            -0.700000            -6.062178             0.023271
C             0.700000            -6.062178             0.022003
C             1.400000            -7.274613             0.059777
C             2.800000            -7.274613             0.025695
C             3.500000            -8.487049             0.081679
C             4.900000            -8.487049             0.039190
C             5.600000            -9.699485             0.034035
C             7.000000            -9.699485             0.023877
C             7.700000           -10.911920             0.087643
C             9.100000           -10.911920             0.053937
H             9.650000           -11.864548             0.007970
C            -7.000000            -2.424871             0.010278
C            -7.700000            -3.637307             0.070154
C            -7.000000            -4.849742             0.086854
C            -5.600000            -4.849742             0.082380
H            -7.550000            -1.472243             0.053575
C            -4.900000            -6.062178             0.034762
C            -3.500000            -6.062178             0.073768
C            -2.800000            -7.274613             0.021438
C            -1.400000            -7.274613             0.007913
C            -0.700000            -8.487049             0.025438
C             0.700000            -8.487049             0.005901
C             1.400000            -9.699485             0.093133
C             2.800000            -9.699485             0.053110
C             3.500000           -10.911920             0.062892
C             4.900000           -10.911920             0.092637
C             5.600000           -12.124356             0.071842
C             7.000000           -12.124356             0.036716
H             7.550000           -13.076984             0.001958
C            -9.100000            -3.637307             0.025150
C            -9.800000            -4.849742             0.022981
C            -9.100000            -6.062178             0.081914
C            -7.700000            -6.062178             0.082514
H            -9.650000            -2.684679             0.067679
C            -7.000000            -7.274613             0.038597
C            -5.600000            -7.274613             0.076955
C            -4.900000            -8.487049             0.052291
C            -3.500000            -8.487049             0.092761
C            -2.800000            -9.699485             0.015803
C            -1.400000            -9.699485             0.070055
C            -0.700000           -10.911920             0.040409
C             0.700000           -10.911920             0.072780
C             1.400000           -12.124356             0.092438
C             2.800000           -12.124356             0.043380
C             3.500000           -13.336791             0.085135
C             4.900000           -13.336791             0.030913
H             5.450000           -14.289419             0.073953
C           -11.200000            -4.849742             0.090575
C           -11.900000            -6.062178             0.036226
C           -11.200000            -7.274613             0.066216
C            -9.800000            -7.274613             0.060720
H           -11.750000            -3.897114             0.024044
C            -9.100000            -8.487049             0.032972
C            -7.700000            -8.487049             0.059640
C            -7.000000            -9.699485             0.079067
C            -5.600000            -9.699485             0.085162
C            -4.900000           -10.911920             0.037011
C            -3.500000           -10.911920             0.094008
C            -2.800000           -12.124356             0.074378
C            -1.400000           -12.124356             0.013004
C            -0.700000           -13.336791             0.051767
C             0.700000           -13.336791             0.079829
C             1.400000           -14.549227             0.074583
C             2.800000           -14.549227             0.014290
H             3.350000           -15.501855             0.062220
C           -13.300000            -6.062178             0.099386
C           -14.000000            -7.274613             0.020121
C           -13.300000            -8.487049             0.064082
C           -11.900000            -8.487049             0.047877
H           -13.850000            -5.109550             0.036477
H           -15.100000            -7.274613             0.036167
H           -13.850000            -9.439677             0.035383
C           -11.200000            -9.699485             0.071966
C            -9.800000            -9.699485             0.069620
H           -11.750000           -10.652112             0.076879
C            -9.100000           -10.911920             0.038098
C            -7.700000           -10.911920             0.098830
H            -9.650000           -11.864548             0.075028
C            -7.000000           -12.124356             0.092607
C            -5.600000           -12.124356             0.067989
H            -7.550000           -13.076984             0.020621
C            -4.900000           -13.336791             0.011976
C            -3.500000           -13.336791             0.083993
H            -5.450000           -14.289419             0.085227
C            -2.800000           -14.549227             0.020510
C            -1.400000           -14.549227             0.058198
H            -3.350000           -15.501855             0.085439
C            -0.700000           -15.761662             0.041653
C             0.700000           -15.761662             0.012710
H            -1.250000           -16.714290             0.047316
H             1.250000           -16.714290             0.061318
