156
isomero_18_27
C             0.700000             1.212436             0.024741
C            -0.700000             1.212436             0.058130
C            -1.400000             0.000000             0.061704
C            -0.700000            -1.212436             0.000516
C             0.700000            -1.212436             0.027940
C             1.400000            -0.000000             0.004732
H             1.250000             2.165064             0.040682
H            -1.250000             2.165064             0.054216
C             2.800000             0.000000             0.010809
C             1.400000            -2.424871             0.097089
C             2.800000            -2.424871             0.069515
C             3.500000            -1.212436             0.031177
H             3.350000             0.952628             0.053894
C             4.900000            -1.212436             0.079398
C             3.500000            -3.637307             0.094708
C             4.900000            -3.637307             0.037521
C             5.600000            -2.424871             0.069375
H             5.450000            -0.259808             0.039081
C             7.000000            -2.424871             0.005717
C             5.600000            -4.849742             0.039085
C             7.000000            -4.849742             0.048941
C             7.700000            -3.637307             0.012271
H             7.550000            -1.472243             0.060928
C             9.100000            -3.637307             0.045295
C             7.700000            -6.062178             0.040140
C             9.100000            -6.062178             0.011899
C             9.800000            -4.849742             0.006935
H             9.650000            -2.684679             0.082617
C            11.200000            -4.849742             0.092297
C             9.800000            -7.274613             0.068724
C            11.200000            -7.274613             0.033025
C            11.900000            -6.062178             0.022992
H            11.750000            -3.897114             0.022716
C            13.300000            -6.062178             0.005106
C            11.900000            -8.487049             0.004975
C            13.300000            -8.487049             0.043954
C            14.000000            -7.274613             0.036006
H            13.850000            -5.109550             0.089570
H            13.850000            -9.439677             0.077970
H            15.100000            -7.274613             0.003389
C            -2.800000             0.000000             0.061068
C            -3.500000            -1.212436             0.020829
B            -2.800000            -2.424871             0.094053
C            -1.400000            -2.424871             0.057053
H            -3.350000             0.952628             0.091139
C            -0.700000            -3.637307             0.072939
C             0.700000            -3.637307             0.003994
C             1.400000            -4.849742             0.043298
C             2.800000            -4.849742             0.020525
C             3.500000            -6.062178             0.080541
C             4.900000            -6.062178             0.002505
C             5.600000            -7.274613             0.047471
C             7.000000            -7.274613             0.068043
C             7.700000            -8.487049             0.099410
C             9.100000            -8.487049             0.077074
C             9.800000            -9.699485             0.000044
C            11.200000            -9.699485             0.089238
H            11.750000           -10.652112             0.054550
C            -4.900000            -1.212436             0.069721
C            -5.600000            -2.424871             0.026015
C            -4.900000            -3.637307             0.048707
N            -3.500000            -3.637307             0.052276
H            -5.450000            -0.259808             0.002445
C            -2.800000            -4.849742             0.031652
C            -1.400000            -4.849742             0.090726
C            -0.700000            -6.062178             0.044060
C             0.700000            -6.062178             0.087614
C             1.400000            -7.274613             0.075512
C             2.800000            -7.274613             0.078341
C             3.500000            -8.487049             0.094504
C             4.900000            -8.487049             0.098954
C             5.600000            -9.699485             0.027571
C             7.000000            -9.699485             0.060150
C             7.700000           -10.911920             0.053304
C             9.100000           -10.911920             0.097594
H             9.650000           -11.864548             0.095439
C            -7.000000            -2.424871             0.030164
C            -7.700000            -3.637307             0.074365
C            -7.000000            -4.849742             0.067014
C            -5.600000            -4.849742             0.038599
H            -7.550000            -1.472243             0.099238
C            -4.900000            -6.062178             0.030861
C            -3.500000            -6.062178             0.050254
C            -2.800000            -7.274613             0.073364
C            -1.400000            -7.274613             0.018019
C            -0.700000            -8.487049             0.019114
C             0.700000            -8.487049             0.053633
C             1.400000            -9.699485             0.099974
C             2.800000            -9.699485             0.011619
C             3.500000           -10.911920             0.024380
C             4.900000           -10.911920             0.043307
C             5.600000           -12.124356             0.016022
C             7.000000           -12.124356             0.077520
H             7.550000           -13.076984             0.006523
C            -9.100000            -3.637307             0.059475
C            -9.800000            -4.849742             0.025235
C            -9.100000            -6.062178             0.038665
C            -7.700000            -6.062178             0.023487
H            -9.650000            -2.684679             0.070700
C            -7.000000            -7.274613             0.019172
C            -5.600000            -7.274613             0.048789
C            -4.900000            -8.487049             0.081097
C            -3.500000            -8.487049             0.073702
C            -2.800000            -9.699485             0.036179
C            -1.400000            -9.699485             0.054183
C            -0.700000           -10.911920             0.018435
C             0.700000           -10.911920             0.075901
C             1.400000           -12.124356             0.088450
C             2.800000           -12.124356             0.020186
C             3.500000           -13.336791             0.049140
C             4.900000           -13.336791             0.007039
H             5.450000           -14.289419             0.015656
C           -11.200000            -4.849742             0.009138
C           -11.900000            -6.062178             0.008665
C           -11.200000            -7.274613             0.071537
C            -9.800000            -7.274613             0.001039
H           -11.750000            -3.897114             0.011999
C            -9.100000            -8.487049             0.017611
C            -7.700000            -8.487049             0.019276
C            -7.000000            -9.699485             0.012916
C            -5.600000            -9.699485             0.023999
C            -4.900000           -10.911920             0.033549
C            -3.500000           -10.911920             0.040971
C            -2.800000           -12.124356             0.023744
C            -1.400000           -12.124356             0.010223
C            -0.700000           -13.336791             0.097842
C             0.700000           -13.336791             0.088004
C             1.400000           -14.549227             0.092819
C             2.800000           -14.549227             0.017377
H             3.350000           -15.501855             0.066447
C           -13.300000            -6.062178             0.015425
C           -14.000000            -7.274613             0.037709
C           -13.300000            -8.487049             0.054684
C           -11.900000            -8.487049             0.085334
H           -13.850000            -5.109550             0.061780
H           -15.100000            -7.274613             0.051410
H           -13.850000            -9.439677             0.096594
C           -11.200000            -9.699485             0.002334
C            -9.800000            -9.699485             0.070481
H           -11.750000           -10.652112             0.001941
C            -9.100000           -10.911920             0.007343
C            -7.700000           -10.911920             0.056365
H            -9.650000           -11.864548             0.061556
C            -7.000000           -12.124356             0.017601
C            -5.600000           -12.124356             0.091698
H            -7.550000           -13.076984             0.055004
C            -4.900000           -13.336791             0.014464
C            -3.500000           -13.336791             0.069065
H            -5.450000           -14.289419             0.083514
C            -2.800000           -14.549227             0.009089
C            -1.400000           -14.549227             0.072282
H            -3.350000           -15.501855             0.018443
C            -0.700000           -15.761662             0.042082
C             0.700000           -15.761662             0.054022
H            -1.250000           -16.714290             0.096796
H             1.250000           -16.714290             0.010661
