156
isomero_17_26
C             0.700000             1.212436             0.067619
C            -0.700000             1.212436             0.006918
C            -1.400000             0.000000             0.085944
C            -0.700000            -1.212436             0.087128
C             0.700000            -1.212436             0.050478
C             1.400000            -0.000000             0.005638
H             1.250000             2.165064             0.045233
H            -1.250000             2.165064             0.006537
C             2.800000             0.000000             0.088410
C             1.400000            -2.424871             0.085522
C             2.800000            -2.424871             0.008268
C             3.500000            -1.212436             0.033021
H             3.350000             0.952628             0.043041
C             4.900000            -1.212436             0.062275
C             3.500000            -3.637307             0.039544
C             4.900000            -3.637307             0.081349
C             5.600000            -2.424871             0.007077
H             5.450000            -0.259808             0.076960
C             7.000000            -2.424871             0.086469
C             5.600000            -4.849742             0.018964
C             7.000000            -4.849742             0.004865
C             7.700000            -3.637307             0.037953
H             7.550000            -1.472243             0.093611
C             9.100000            -3.637307             0.070041
C             7.700000            -6.062178             0.004954
C             9.100000            -6.062178             0.076975
C             9.800000            -4.849742             0.022835
H             9.650000            -2.684679             0.076858
C            11.200000            -4.849742             0.067796
C             9.800000            -7.274613             0.015924
C            11.200000            -7.274613             0.037784
C            11.900000            -6.062178             0.065439
H            11.750000            -3.897114             0.053276
C            13.300000            -6.062178             0.026505
C            11.900000            -8.487049             0.084808
C            13.300000            -8.487049             0.018163
C            14.000000            -7.274613             0.037075
H            13.850000            -5.109550             0.013989
H            13.850000            -9.439677             0.093290
H            15.100000            -7.274613             0.031059
C            -2.800000             0.000000             0.016851
C            -3.500000            -1.212436             0.089306
C            -2.800000            -2.424871             0.062599
B            -1.400000            -2.424871             0.039337
H            -3.350000             0.952628             0.010802
N            -0.700000            -3.637307             0.097739
C             0.700000            -3.637307             0.048861
C             1.400000            -4.849742             0.062485
C             2.800000            -4.849742             0.067001
C             3.500000            -6.062178             0.018468
C             4.900000            -6.062178             0.011196
C             5.600000            -7.274613             0.066306
C             7.000000            -7.274613             0.060362
C             7.700000            -8.487049             0.027722
C             9.100000            -8.487049             0.073138
C             9.800000            -9.699485             0.094744
C            11.200000            -9.699485             0.083998
H            11.750000           -10.652112             0.085218
C            -4.900000            -1.212436             0.006419
C            -5.600000            -2.424871             0.077260
C            -4.900000            -3.637307             0.086757
C            -3.500000            -3.637307             0.027496
H            -5.450000            -0.259808             0.026973
C            -2.800000            -4.849742             0.062398
C            -1.400000            -4.849742             0.030747
C            -0.700000            -6.062178             0.077634
C             0.700000            -6.062178             0.072068
C             1.400000            -7.274613             0.099893
C             2.800000            -7.274613             0.056496
C             3.500000            -8.487049             0.040460
C             4.900000            -8.487049             0.029380
C             5.600000            -9.699485             0.025993
C             7.000000            -9.699485             0.077194
C             7.700000           -10.911920             0.045206
C             9.100000           -10.911920             0.028734
H             9.650000           -11.864548             0.075781
C            -7.000000            -2.424871             0.072197
C            -7.700000            -3.637307             0.091500
C            -7.000000            -4.849742             0.009724
C            -5.600000            -4.849742             0.059402
H            -7.550000            -1.472243             0.042791
C            -4.900000            -6.062178             0.059826
C            -3.500000            -6.062178             0.020483
C            -2.800000            -7.274613             0.047399
C            -1.400000            -7.274613             0.058318
C            -0.700000            -8.487049             0.097348
C             0.700000            -8.487049             0.013639
C             1.400000            -9.699485             0.021743
C             2.800000            -9.699485             0.036431
C             3.500000           -10.911920             0.024434
C             4.900000           -10.911920             0.056959
C             5.600000           -12.124356             0.094432
C             7.000000           -12.124356             0.002500
H             7.550000           -13.076984             0.026433
C            -9.100000            -3.637307             0.074856
C            -9.800000            -4.849742             0.075011
C            -9.100000            -6.062178             0.061980
C            -7.700000            -6.062178             0.015190
H            -9.650000            -2.684679             0.030023
C            -7.000000            -7.274613             0.095201
C            -5.600000            -7.274613             0.089276
C            -4.900000            -8.487049             0.004799
C            -3.500000            -8.487049             0.039657
C            -2.800000            -9.699485             0.042786
C            -1.400000            -9.699485             0.092548
C            -0.700000           -10.911920             0.027321
C             0.700000           -10.911920             0.002960
C             1.400000           -12.124356             0.084727
C             2.800000           -12.124356             0.017292
C             3.500000           -13.336791             0.085940
C             4.900000           -13.336791             0.025380
H             5.450000           -14.289419             0.059886
C           -11.200000            -4.849742             0.037203
C           -11.900000            -6.062178             0.067646
C           -11.200000            -7.274613             0.090463
C            -9.800000            -7.274613             0.091838
H           -11.750000            -3.897114             0.074846
C            -9.100000            -8.487049             0.045728
C            -7.700000            -8.487049             0.041843
C            -7.000000            -9.699485             0.004038
C            -5.600000            -9.699485             0.086460
C            -4.900000           -10.911920             0.029369
C            -3.500000           -10.911920             0.043055
C            -2.800000           -12.124356             0.056393
C            -1.400000           -12.124356             0.026516
C            -0.700000           -13.336791             0.098555
C             0.700000           -13.336791             0.026936
C             1.400000           -14.549227             0.020350
C             2.800000           -14.549227             0.063976
H             3.350000           -15.501855             0.036619
C           -13.300000            -6.062178             0.077991
C           -14.000000            -7.274613             0.061210
C           -13.300000            -8.487049             0.010938
C           -11.900000            -8.487049             0.034438
H           -13.850000            -5.109550             0.033857
H           -15.100000            -7.274613             0.075665
H           -13.850000            -9.439677             0.004008
C           -11.200000            -9.699485             0.041243
C            -9.800000            -9.699485             0.098300
H           -11.750000           -10.652112             0.019779
C            -9.100000           -10.911920             0.061150
C            -7.700000           -10.911920             0.065261
H            -9.650000           -11.864548             0.028834
C            -7.000000           -12.124356             0.073514
C            -5.600000           -12.124356             0.099963
H            -7.550000           -13.076984             0.024973
C            -4.900000           -13.336791             0.040925
C            -3.500000           -13.336791             0.087597
H            -5.450000           -14.289419             0.030124
C            -2.800000           -14.549227             0.062220
C            -1.400000           -14.549227             0.042737
H            -3.350000           -15.501855             0.097638
C            -0.700000           -15.761662             0.058250
C             0.700000           -15.761662             0.044199
H            -1.250000           -16.714290             0.051198
H             1.250000           -16.714290             0.017057
