156
isomero_67_66
C             0.700000             1.212436             0.048195
C            -0.700000             1.212436             0.051147
C            -1.400000             0.000000             0.004374
C            -0.700000            -1.212436             0.082222
C             0.700000            -1.212436             0.086876
C             1.400000            -0.000000             0.074774
H             1.250000             2.165064             0.050588
H            -1.250000             2.165064             0.052612
C             2.800000             0.000000             0.045512
C             1.400000            -2.424871             0.088798
C             2.800000            -2.424871             0.019841
C             3.500000            -1.212436             0.024955
H             3.350000             0.952628             0.008092
C             4.900000            -1.212436             0.068676
C             3.500000            -3.637307             0.056887
C             4.900000            -3.637307             0.065366
C             5.600000            -2.424871             0.076064
H             5.450000            -0.259808             0.043391
C             7.000000            -2.424871             0.043276
C             5.600000            -4.849742             0.045564
C             7.000000            -4.849742             0.020510
C             7.700000            -3.637307             0.046331
H             7.550000            -1.472243             0.014289
C             9.100000            -3.637307             0.040767
C             7.700000            -6.062178             0.084819
C             9.100000            -6.062178             0.095553
C             9.800000            -4.849742             0.029116
H             9.650000            -2.684679             0.074415
C            11.200000            -4.849742             0.076742
C             9.800000            -7.274613             0.093653
C            11.200000            -7.274613             0.027731
C            11.900000            -6.062178             0.015237
H            11.750000            -3.897114             0.059616
C            13.300000            -6.062178             0.014284
C            11.900000            -8.487049             0.081197
C            13.300000            -8.487049             0.050210
C            14.000000            -7.274613             0.084997
H            13.850000            -5.109550             0.013581
H            13.850000            -9.439677             0.097793
H            15.100000            -7.274613             0.025780
C            -2.800000             0.000000             0.077276
C            -3.500000            -1.212436             0.037527
C            -2.800000            -2.424871             0.057755
C            -1.400000            -2.424871             0.085317
H            -3.350000             0.952628             0.033304
C            -0.700000            -3.637307             0.072411
C             0.700000            -3.637307             0.050157
C             1.400000            -4.849742             0.000467
C             2.800000            -4.849742             0.081812
C             3.500000            -6.062178             0.081040
C             4.900000            -6.062178             0.070589
C             5.600000            -7.274613             0.062370
C             7.000000            -7.274613             0.094691
C             7.700000            -8.487049             0.081464
C             9.100000            -8.487049             0.030986
C             9.800000            -9.699485             0.078117
C            11.200000            -9.699485             0.043861
H            11.750000           -10.652112             0.072885
C            -4.900000            -1.212436             0.030000
C            -5.600000            -2.424871             0.087178
C            -4.900000            -3.637307             0.004598
C            -3.500000            -3.637307             0.048071
H            -5.450000            -0.259808             0.022944
C            -2.800000            -4.849742             0.047294
C            -1.400000            -4.849742             0.058624
C            -0.700000            -6.062178             0.097185
C             0.700000            -6.062178             0.095901
C             1.400000            -7.274613             0.051884
C             2.800000            -7.274613             0.017848
C             3.500000            -8.487049             0.095960
C             4.900000            -8.487049             0.038762
C             5.600000            -9.699485             0.095029
C             7.000000            -9.699485             0.088196
C             7.700000           -10.911920             0.092325
C             9.100000           -10.911920             0.064735
H             9.650000           -11.864548             0.034888
C            -7.000000            -2.424871             0.032307
C            -7.700000            -3.637307             0.093976
C            -7.000000            -4.849742             0.008411
C            -5.600000            -4.849742             0.040950
H            -7.550000            -1.472243             0.034023
C            -4.900000            -6.062178             0.060655
C            -3.500000            -6.062178             0.057251
C            -2.800000            -7.274613             0.097331
C            -1.400000            -7.274613             0.029355
C            -0.700000            -8.487049             0.058059
C             0.700000            -8.487049             0.064628
C             1.400000            -9.699485             0.011579
C             2.800000            -9.699485             0.043278
C             3.500000           -10.911920             0.058036
C             4.900000           -10.911920             0.015162
C             5.600000           -12.124356             0.022753
C             7.000000           -12.124356             0.020558
H             7.550000           -13.076984             0.036080
C            -9.100000            -3.637307             0.076187
C            -9.800000            -4.849742             0.017793
C            -9.100000            -6.062178             0.062270
C            -7.700000            -6.062178             0.066074
H            -9.650000            -2.684679             0.002457
B            -7.000000            -7.274613             0.060368
N            -5.600000            -7.274613             0.077834
C            -4.900000            -8.487049             0.087172
C            -3.500000            -8.487049             0.002512
C            -2.800000            -9.699485             0.046117
C            -1.400000            -9.699485             0.016851
C            -0.700000           -10.911920             0.091541
C             0.700000           -10.911920             0.004519
C             1.400000           -12.124356             0.031358
C             2.800000           -12.124356             0.026918
C             3.500000           -13.336791             0.069670
C             4.900000           -13.336791             0.001445
H             5.450000           -14.289419             0.064595
C           -11.200000            -4.849742             0.072676
C           -11.900000            -6.062178             0.041903
C           -11.200000            -7.274613             0.002286
C            -9.800000            -7.274613             0.041890
H           -11.750000            -3.897114             0.078910
C            -9.100000            -8.487049             0.088991
C            -7.700000            -8.487049             0.023457
C            -7.000000            -9.699485             0.054400
C            -5.600000            -9.699485             0.025612
C            -4.900000           -10.911920             0.055774
C            -3.500000           -10.911920             0.083951
C            -2.800000           -12.124356             0.084854
C            -1.400000           -12.124356             0.037355
C            -0.700000           -13.336791             0.067055
C             0.700000           -13.336791             0.070062
C             1.400000           -14.549227             0.093960
C             2.800000           -14.549227             0.028988
H             3.350000           -15.501855             0.081970
C           -13.300000            -6.062178             0.038091
C           -14.000000            -7.274613             0.019431
C           -13.300000            -8.487049             0.027357
C           -11.900000            -8.487049             0.094508
H           -13.850000            -5.109550             0.004786
H           -15.100000            -7.274613             0.039499
H           -13.850000            -9.439677             0.039398
C           -11.200000            -9.699485             0.088470
C            -9.800000            -9.699485             0.074422
H           -11.750000           -10.652112             0.098858
C            -9.100000           -10.911920             0.026643
C            -7.700000           -10.911920             0.047270
H            -9.650000           -11.864548             0.014103
C            -7.000000           -12.124356             0.090264
C            -5.600000           -12.124356             0.094142
H            -7.550000           -13.076984             0.085543
C            -4.900000           -13.336791             0.037152
C            -3.500000           -13.336791             0.052203
H            -5.450000           -14.289419             0.036036
C            -2.800000           -14.549227             0.074930
C            -1.400000           -14.549227             0.030169
H            -3.350000           -15.501855             0.097286
C            -0.700000           -15.761662             0.073330
C             0.700000           -15.761662             0.057154
H            -1.250000           -16.714290             0.009454
H             1.250000           -16.714290             0.066591
