156
isomero_55_42
C             0.700000             1.212436             0.030627
C            -0.700000             1.212436             0.080741
C            -1.400000             0.000000             0.023389
C            -0.700000            -1.212436             0.080069
C             0.700000            -1.212436             0.089364
C             1.400000            -0.000000             0.081189
H             1.250000             2.165064             0.053186
H            -1.250000             2.165064             0.066059
C             2.800000             0.000000             0.023632
C             1.400000            -2.424871             0.059352
C             2.800000            -2.424871             0.036038
C             3.500000            -1.212436             0.056889
H             3.350000             0.952628             0.098580
C             4.900000            -1.212436             0.075686
C             3.500000            -3.637307             0.080653
C             4.900000            -3.637307             0.026737
C             5.600000            -2.424871             0.070923
H             5.450000            -0.259808             0.004640
C             7.000000            -2.424871             0.067397
C             5.600000            -4.849742             0.089323
C             7.000000            -4.849742             0.013165
C             7.700000            -3.637307             0.071540
H             7.550000            -1.472243             0.064056
C             9.100000            -3.637307             0.048426
C             7.700000            -6.062178             0.019015
C             9.100000            -6.062178             0.033125
C             9.800000            -4.849742             0.074434
H             9.650000            -2.684679             0.056629
C            11.200000            -4.849742             0.048440
C             9.800000            -7.274613             0.051731
C            11.200000            -7.274613             0.086066
C            11.900000            -6.062178             0.001534
H            11.750000            -3.897114             0.040829
C            13.300000            -6.062178             0.006610
C            11.900000            -8.487049             0.082311
C            13.300000            -8.487049             0.068816
C            14.000000            -7.274613             0.069145
H            13.850000            -5.109550             0.030477
H            13.850000            -9.439677             0.047034
H            15.100000            -7.274613             0.053280
C            -2.800000             0.000000             0.085665
C            -3.500000            -1.212436             0.098485
C            -2.800000            -2.424871             0.098228
C            -1.400000            -2.424871             0.006766
H            -3.350000             0.952628             0.039924
C            -0.700000            -3.637307             0.058393
C             0.700000            -3.637307             0.027924
C             1.400000            -4.849742             0.008051
C             2.800000            -4.849742             0.084281
C             3.500000            -6.062178             0.022495
C             4.900000            -6.062178             0.054992
C             5.600000            -7.274613             0.038477
C             7.000000            -7.274613             0.016592
C             7.700000            -8.487049             0.070864
C             9.100000            -8.487049             0.014183
C             9.800000            -9.699485             0.062916
C            11.200000            -9.699485             0.036691
H            11.750000           -10.652112             0.068324
C            -4.900000            -1.212436             0.055221
C            -5.600000            -2.424871             0.087409
C            -4.900000            -3.637307             0.067646
C            -3.500000            -3.637307             0.029043
H            -5.450000            -0.259808             0.031477
C            -2.800000            -4.849742             0.055990
C            -1.400000            -4.849742             0.045465
C            -0.700000            -6.062178             0.085662
C             0.700000            -6.062178             0.099301
C             1.400000            -7.274613             0.020128
C             2.800000            -7.274613             0.043655
C             3.500000            -8.487049             0.040280
C             4.900000            -8.487049             0.057531
C             5.600000            -9.699485             0.098026
C             7.000000            -9.699485             0.060245
C             7.700000           -10.911920             0.022287
C             9.100000           -10.911920             0.054194
H             9.650000           -11.864548             0.002485
C            -7.000000            -2.424871             0.021593
C            -7.700000            -3.637307             0.003128
C            -7.000000            -4.849742             0.038374
C            -5.600000            -4.849742             0.062696
H            -7.550000            -1.472243             0.084878
C            -4.900000            -6.062178             0.099254
C            -3.500000            -6.062178             0.026082
C            -2.800000            -7.274613             0.063756
C            -1.400000            -7.274613             0.012330
C            -0.700000            -8.487049             0.090738
C             0.700000            -8.487049             0.031582
C             1.400000            -9.699485             0.082236
C             2.800000            -9.699485             0.016071
C             3.500000           -10.911920             0.084418
C             4.900000           -10.911920             0.081605
C             5.600000           -12.124356             0.038326
C             7.000000           -12.124356             0.081260
H             7.550000           -13.076984             0.025933
C            -9.100000            -3.637307             0.029981
C            -9.800000            -4.849742             0.002946
C            -9.100000            -6.062178             0.073732
C            -7.700000            -6.062178             0.024651
H            -9.650000            -2.684679             0.045268
C            -7.000000            -7.274613             0.013201
C            -5.600000            -7.274613             0.070113
C            -4.900000            -8.487049             0.069039
C            -3.500000            -8.487049             0.035966
C            -2.800000            -9.699485             0.079382
C            -1.400000            -9.699485             0.042525
C            -0.700000           -10.911920             0.055107
C             0.700000           -10.911920             0.076863
C             1.400000           -12.124356             0.006540
C             2.800000           -12.124356             0.022671
C             3.500000           -13.336791             0.005336
C             4.900000           -13.336791             0.043131
H             5.450000           -14.289419             0.007826
N           -11.200000            -4.849742             0.008529
B           -11.900000            -6.062178             0.014090
C           -11.200000            -7.274613             0.069750
C            -9.800000            -7.274613             0.016895
H           -11.750000            -3.897114             0.078253
C            -9.100000            -8.487049             0.001650
C            -7.700000            -8.487049             0.057490
C            -7.000000            -9.699485             0.018960
C            -5.600000            -9.699485             0.099270
C            -4.900000           -10.911920             0.052341
C            -3.500000           -10.911920             0.029703
C            -2.800000           -12.124356             0.008133
C            -1.400000           -12.124356             0.062060
C            -0.700000           -13.336791             0.052519
C             0.700000           -13.336791             0.038656
C             1.400000           -14.549227             0.000540
C             2.800000           -14.549227             0.051556
H             3.350000           -15.501855             0.058931
C           -13.300000            -6.062178             0.095631
C           -14.000000            -7.274613             0.007047
C           -13.300000            -8.487049             0.014863
C           -11.900000            -8.487049             0.043927
H           -13.850000            -5.109550             0.024037
H           -15.100000            -7.274613             0.030236
H           -13.850000            -9.439677             0.033397
C           -11.200000            -9.699485             0.067249
C            -9.800000            -9.699485             0.026302
H           -11.750000           -10.652112             0.084571
C            -9.100000           -10.911920             0.022574
C            -7.700000           -10.911920             0.015823
H            -9.650000           -11.864548             0.099616
C            -7.000000           -12.124356             0.011113
C            -5.600000           -12.124356             0.014049
H            -7.550000           -13.076984             0.075948
C            -4.900000           -13.336791             0.007805
C            -3.500000           -13.336791             0.051417
H            -5.450000           -14.289419             0.021148
C            -2.800000           -14.549227             0.084418
C            -1.400000           -14.549227             0.023475
H            -3.350000           -15.501855             0.098369
C            -0.700000           -15.761662             0.050711
C             0.700000           -15.761662             0.050363
H            -1.250000           -16.714290             0.054370
H             1.250000           -16.714290             0.077119
