156
isomero_30_41
C             0.700000             1.212436             0.099974
C            -0.700000             1.212436             0.062430
C            -1.400000             0.000000             0.016840
C            -0.700000            -1.212436             0.046961
C             0.700000            -1.212436             0.033767
C             1.400000            -0.000000             0.065673
H             1.250000             2.165064             0.078464
H            -1.250000             2.165064             0.051035
C             2.800000             0.000000             0.065036
C             1.400000            -2.424871             0.009609
C             2.800000            -2.424871             0.077574
C             3.500000            -1.212436             0.030171
H             3.350000             0.952628             0.050563
C             4.900000            -1.212436             0.026360
C             3.500000            -3.637307             0.009126
C             4.900000            -3.637307             0.096845
C             5.600000            -2.424871             0.057960
H             5.450000            -0.259808             0.074486
C             7.000000            -2.424871             0.024038
C             5.600000            -4.849742             0.094846
C             7.000000            -4.849742             0.068324
C             7.700000            -3.637307             0.004475
H             7.550000            -1.472243             0.095150
C             9.100000            -3.637307             0.005154
C             7.700000            -6.062178             0.091165
C             9.100000            -6.062178             0.023921
C             9.800000            -4.849742             0.076608
H             9.650000            -2.684679             0.057914
C            11.200000            -4.849742             0.054267
C             9.800000            -7.274613             0.053171
C            11.200000            -7.274613             0.094983
C            11.900000            -6.062178             0.021742
H            11.750000            -3.897114             0.037210
C            13.300000            -6.062178             0.060389
C            11.900000            -8.487049             0.069121
C            13.300000            -8.487049             0.059011
C            14.000000            -7.274613             0.026132
H            13.850000            -5.109550             0.042825
H            13.850000            -9.439677             0.089132
H            15.100000            -7.274613             0.075476
C            -2.800000             0.000000             0.038114
C            -3.500000            -1.212436             0.009897
C            -2.800000            -2.424871             0.013219
C            -1.400000            -2.424871             0.063870
H            -3.350000             0.952628             0.092294
C            -0.700000            -3.637307             0.081714
C             0.700000            -3.637307             0.010040
C             1.400000            -4.849742             0.037085
C             2.800000            -4.849742             0.037989
C             3.500000            -6.062178             0.090134
C             4.900000            -6.062178             0.005835
C             5.600000            -7.274613             0.061838
C             7.000000            -7.274613             0.057331
C             7.700000            -8.487049             0.065681
C             9.100000            -8.487049             0.056769
C             9.800000            -9.699485             0.007493
C            11.200000            -9.699485             0.075728
H            11.750000           -10.652112             0.047734
C            -4.900000            -1.212436             0.079157
C            -5.600000            -2.424871             0.033092
C            -4.900000            -3.637307             0.067832
C            -3.500000            -3.637307             0.033355
H            -5.450000            -0.259808             0.046894
C            -2.800000            -4.849742             0.031225
C            -1.400000            -4.849742             0.069871
C            -0.700000            -6.062178             0.054366
C             0.700000            -6.062178             0.001592
C             1.400000            -7.274613             0.036210
C             2.800000            -7.274613             0.021737
C             3.500000            -8.487049             0.059279
C             4.900000            -8.487049             0.082741
C             5.600000            -9.699485             0.047020
C             7.000000            -9.699485             0.048209
C             7.700000           -10.911920             0.081995
C             9.100000           -10.911920             0.033284
H             9.650000           -11.864548             0.019968
C            -7.000000            -2.424871             0.051264
C            -7.700000            -3.637307             0.061382
C            -7.000000            -4.849742             0.061625
C            -5.600000            -4.849742             0.003247
H            -7.550000            -1.472243             0.017235
C            -4.900000            -6.062178             0.069818
C            -3.500000            -6.062178             0.023106
C            -2.800000            -7.274613             0.025480
C            -1.400000            -7.274613             0.040889
C            -0.700000            -8.487049             0.087353
C             0.700000            -8.487049             0.091989
C             1.400000            -9.699485             0.030413
C             2.800000            -9.699485             0.014405
C             3.500000           -10.911920             0.005702
C             4.900000           -10.911920             0.036540
C             5.600000           -12.124356             0.015391
C             7.000000           -12.124356             0.014714
H             7.550000           -13.076984             0.030852
B            -9.100000            -3.637307             0.050175
N            -9.800000            -4.849742             0.009958
C            -9.100000            -6.062178             0.006029
C            -7.700000            -6.062178             0.030375
H            -9.650000            -2.684679             0.064069
C            -7.000000            -7.274613             0.024938
C            -5.600000            -7.274613             0.029885
C            -4.900000            -8.487049             0.070134
C            -3.500000            -8.487049             0.018693
C            -2.800000            -9.699485             0.091714
C            -1.400000            -9.699485             0.027761
C            -0.700000           -10.911920             0.051624
C             0.700000           -10.911920             0.038608
C             1.400000           -12.124356             0.016368
C             2.800000           -12.124356             0.038473
C             3.500000           -13.336791             0.007471
C             4.900000           -13.336791             0.032613
H             5.450000           -14.289419             0.052001
C           -11.200000            -4.849742             0.061728
C           -11.900000            -6.062178             0.023336
C           -11.200000            -7.274613             0.049734
C            -9.800000            -7.274613             0.032869
H           -11.750000            -3.897114             0.083579
C            -9.100000            -8.487049             0.009498
C            -7.700000            -8.487049             0.074510
C            -7.000000            -9.699485             0.015008
C            -5.600000            -9.699485             0.096473
C            -4.900000           -10.911920             0.078799
C            -3.500000           -10.911920             0.033399
C            -2.800000           -12.124356             0.006025
C            -1.400000           -12.124356             0.020333
C            -0.700000           -13.336791             0.092903
C             0.700000           -13.336791             0.095706
C             1.400000           -14.549227             0.085728
C             2.800000           -14.549227             0.073982
H             3.350000           -15.501855             0.087816
C           -13.300000            -6.062178             0.062520
C           -14.000000            -7.274613             0.084932
C           -13.300000            -8.487049             0.051931
C           -11.900000            -8.487049             0.026177
H           -13.850000            -5.109550             0.037318
H           -15.100000            -7.274613             0.053045
H           -13.850000            -9.439677             0.079919
C           -11.200000            -9.699485             0.026486
C            -9.800000            -9.699485             0.091337
H           -11.750000           -10.652112             0.029163
C            -9.100000           -10.911920             0.032953
C            -7.700000           -10.911920             0.057501
H            -9.650000           -11.864548             0.077540
C            -7.000000           -12.124356             0.050079
C            -5.600000           -12.124356             0.092610
H            -7.550000           -13.076984             0.077960
C            -4.900000           -13.336791             0.074233
C            -3.500000           -13.336791             0.091725
H            -5.450000           -14.289419             0.013801
C            -2.800000           -14.549227             0.081696
C            -1.400000           -14.549227             0.024406
H            -3.350000           -15.501855             0.010013
C            -0.700000           -15.761662             0.038204
C             0.700000           -15.761662             0.009337
H            -1.250000           -16.714290             0.033253
H             1.250000           -16.714290             0.092988
