156
isomero_64_65
C             0.700000             1.212436             0.018482
C            -0.700000             1.212436             0.067147
C            -1.400000             0.000000             0.004950
C            -0.700000            -1.212436             0.070737
C             0.700000            -1.212436             0.055723
C             1.400000            -0.000000             0.035787
H             1.250000             2.165064             0.070553
H            -1.250000             2.165064             0.061152
C             2.800000             0.000000             0.054772
C             1.400000            -2.424871             0.070857
C             2.800000            -2.424871             0.052310
C             3.500000            -1.212436             0.074468
H             3.350000             0.952628             0.035093
C             4.900000            -1.212436             0.086225
C             3.500000            -3.637307             0.039404
C             4.900000            -3.637307             0.002633
C             5.600000            -2.424871             0.011841
H             5.450000            -0.259808             0.047614
C             7.000000            -2.424871             0.017085
C             5.600000            -4.849742             0.094774
C             7.000000            -4.849742             0.081945
C             7.700000            -3.637307             0.066733
H             7.550000            -1.472243             0.001664
C             9.100000            -3.637307             0.044314
C             7.700000            -6.062178             0.035725
C             9.100000            -6.062178             0.068248
C             9.800000            -4.849742             0.030205
H             9.650000            -2.684679             0.054083
C            11.200000            -4.849742             0.022147
C             9.800000            -7.274613             0.096099
C            11.200000            -7.274613             0.079700
C            11.900000            -6.062178             0.097754
H            11.750000            -3.897114             0.058732
C            13.300000            -6.062178             0.032718
C            11.900000            -8.487049             0.098255
C            13.300000            -8.487049             0.033769
C            14.000000            -7.274613             0.077434
H            13.850000            -5.109550             0.043280
H            13.850000            -9.439677             0.033694
H            15.100000            -7.274613             0.097222
C            -2.800000             0.000000             0.063631
C            -3.500000            -1.212436             0.083828
C            -2.800000            -2.424871             0.055686
C            -1.400000            -2.424871             0.092326
H            -3.350000             0.952628             0.023451
C            -0.700000            -3.637307             0.091578
C             0.700000            -3.637307             0.023071
C             1.400000            -4.849742             0.042993
C             2.800000            -4.849742             0.093602
C             3.500000            -6.062178             0.020454
C             4.900000            -6.062178             0.034970
C             5.600000            -7.274613             0.051201
C             7.000000            -7.274613             0.010810
C             7.700000            -8.487049             0.023860
C             9.100000            -8.487049             0.025082
C             9.800000            -9.699485             0.037652
C            11.200000            -9.699485             0.038256
H            11.750000           -10.652112             0.067081
C            -4.900000            -1.212436             0.095246
C            -5.600000            -2.424871             0.072460
C            -4.900000            -3.637307             0.039193
C            -3.500000            -3.637307             0.062115
H            -5.450000            -0.259808             0.040005
C            -2.800000            -4.849742             0.045689
C            -1.400000            -4.849742             0.037106
C            -0.700000            -6.062178             0.044645
C             0.700000            -6.062178             0.024675
C             1.400000            -7.274613             0.002117
C             2.800000            -7.274613             0.011383
C             3.500000            -8.487049             0.099853
C             4.900000            -8.487049             0.012705
C             5.600000            -9.699485             0.028802
C             7.000000            -9.699485             0.030658
C             7.700000           -10.911920             0.098754
C             9.100000           -10.911920             0.014976
H             9.650000           -11.864548             0.016591
C            -7.000000            -2.424871             0.045694
C            -7.700000            -3.637307             0.023225
C            -7.000000            -4.849742             0.059806
C            -5.600000            -4.849742             0.033675
H            -7.550000            -1.472243             0.078544
C            -4.900000            -6.062178             0.077789
C            -3.500000            -6.062178             0.007982
N            -2.800000            -7.274613             0.079398
B            -1.400000            -7.274613             0.024381
C            -0.700000            -8.487049             0.030788
C             0.700000            -8.487049             0.073725
C             1.400000            -9.699485             0.081551
C             2.800000            -9.699485             0.019277
C             3.500000           -10.911920             0.051552
C             4.900000           -10.911920             0.053063
C             5.600000           -12.124356             0.015676
C             7.000000           -12.124356             0.085728
H             7.550000           -13.076984             0.022989
C            -9.100000            -3.637307             0.072323
C            -9.800000            -4.849742             0.079957
C            -9.100000            -6.062178             0.078182
C            -7.700000            -6.062178             0.043715
H            -9.650000            -2.684679             0.095789
C            -7.000000            -7.274613             0.025361
C            -5.600000            -7.274613             0.021309
C            -4.900000            -8.487049             0.014699
C            -3.500000            -8.487049             0.078258
C            -2.800000            -9.699485             0.048611
C            -1.400000            -9.699485             0.007054
C            -0.700000           -10.911920             0.017712
C             0.700000           -10.911920             0.068627
C             1.400000           -12.124356             0.066503
C             2.800000           -12.124356             0.082223
C             3.500000           -13.336791             0.088400
C             4.900000           -13.336791             0.089826
H             5.450000           -14.289419             0.013180
C           -11.200000            -4.849742             0.048473
C           -11.900000            -6.062178             0.070263
C           -11.200000            -7.274613             0.070802
C            -9.800000            -7.274613             0.078920
H           -11.750000            -3.897114             0.034557
C            -9.100000            -8.487049             0.063733
C            -7.700000            -8.487049             0.016348
C            -7.000000            -9.699485             0.052338
C            -5.600000            -9.699485             0.015533
C            -4.900000           -10.911920             0.052811
C            -3.500000           -10.911920             0.092927
C            -2.800000           -12.124356             0.011776
C            -1.400000           -12.124356             0.038929
C            -0.700000           -13.336791             0.074374
C             0.700000           -13.336791             0.016384
C             1.400000           -14.549227             0.084505
C             2.800000           -14.549227             0.021746
H             3.350000           -15.501855             0.019249
C           -13.300000            -6.062178             0.054816
C           -14.000000            -7.274613             0.066099
C           -13.300000            -8.487049             0.084435
C           -11.900000            -8.487049             0.081947
H           -13.850000            -5.109550             0.091557
H           -15.100000            -7.274613             0.088576
H           -13.850000            -9.439677             0.031115
C           -11.200000            -9.699485             0.089452
C            -9.800000            -9.699485             0.011289
H           -11.750000           -10.652112             0.025493
C            -9.100000           -10.911920             0.073033
C            -7.700000           -10.911920             0.088640
H            -9.650000           -11.864548             0.026846
C            -7.000000           -12.124356             0.044367
C            -5.600000           -12.124356             0.036573
H            -7.550000           -13.076984             0.020325
C            -4.900000           -13.336791             0.007140
C            -3.500000           -13.336791             0.007407
H            -5.450000           -14.289419             0.096888
C            -2.800000           -14.549227             0.057021
C            -1.400000           -14.549227             0.077655
H            -3.350000           -15.501855             0.073128
C            -0.700000           -15.761662             0.051989
C             0.700000           -15.761662             0.032766
H            -1.250000           -16.714290             0.055555
H             1.250000           -16.714290             0.045015
