156
isomero_27_28
C             0.700000             1.212436             0.068572
C            -0.700000             1.212436             0.097088
C            -1.400000             0.000000             0.020408
C            -0.700000            -1.212436             0.021963
C             0.700000            -1.212436             0.043820
C             1.400000            -0.000000             0.003010
H             1.250000             2.165064             0.026096
H            -1.250000             2.165064             0.027511
C             2.800000             0.000000             0.036436
C             1.400000            -2.424871             0.008505
C             2.800000            -2.424871             0.078485
C             3.500000            -1.212436             0.087169
H             3.350000             0.952628             0.076189
C             4.900000            -1.212436             0.025775
C             3.500000            -3.637307             0.077203
C             4.900000            -3.637307             0.033601
C             5.600000            -2.424871             0.023673
H             5.450000            -0.259808             0.047218
C             7.000000            -2.424871             0.088268
C             5.600000            -4.849742             0.019750
C             7.000000            -4.849742             0.035718
C             7.700000            -3.637307             0.066766
H             7.550000            -1.472243             0.013314
C             9.100000            -3.637307             0.085610
C             7.700000            -6.062178             0.087259
C             9.100000            -6.062178             0.095568
C             9.800000            -4.849742             0.051803
H             9.650000            -2.684679             0.065370
C            11.200000            -4.849742             0.031707
C             9.800000            -7.274613             0.054421
C            11.200000            -7.274613             0.085876
C            11.900000            -6.062178             0.005311
H            11.750000            -3.897114             0.041004
C            13.300000            -6.062178             0.061692
C            11.900000            -8.487049             0.014574
C            13.300000            -8.487049             0.041376
C            14.000000            -7.274613             0.074520
H            13.850000            -5.109550             0.042436
H            13.850000            -9.439677             0.052726
H            15.100000            -7.274613             0.066902
C            -2.800000             0.000000             0.035609
C            -3.500000            -1.212436             0.060980
C            -2.800000            -2.424871             0.069952
C            -1.400000            -2.424871             0.012714
H            -3.350000             0.952628             0.086454
C            -0.700000            -3.637307             0.028292
C             0.700000            -3.637307             0.023840
C             1.400000            -4.849742             0.064482
C             2.800000            -4.849742             0.070497
C             3.500000            -6.062178             0.002596
C             4.900000            -6.062178             0.005102
C             5.600000            -7.274613             0.068255
C             7.000000            -7.274613             0.044300
C             7.700000            -8.487049             0.082239
C             9.100000            -8.487049             0.029469
C             9.800000            -9.699485             0.094958
C            11.200000            -9.699485             0.052912
H            11.750000           -10.652112             0.018241
C            -4.900000            -1.212436             0.022094
C            -5.600000            -2.424871             0.020681
N            -4.900000            -3.637307             0.083493
B            -3.500000            -3.637307             0.019593
H            -5.450000            -0.259808             0.080436
C            -2.800000            -4.849742             0.034008
C            -1.400000            -4.849742             0.036509
C            -0.700000            -6.062178             0.093985
C             0.700000            -6.062178             0.098671
C             1.400000            -7.274613             0.018575
C             2.800000            -7.274613             0.072670
C             3.500000            -8.487049             0.031885
C             4.900000            -8.487049             0.061038
C             5.600000            -9.699485             0.027892
C             7.000000            -9.699485             0.005622
C             7.700000           -10.911920             0.018310
C             9.100000           -10.911920             0.093360
H             9.650000           -11.864548             0.055276
C            -7.000000            -2.424871             0.078121
C            -7.700000            -3.637307             0.052935
C            -7.000000            -4.849742             0.053273
C            -5.600000            -4.849742             0.012222
H            -7.550000            -1.472243             0.013382
C            -4.900000            -6.062178             0.075729
C            -3.500000            -6.062178             0.058968
C            -2.800000            -7.274613             0.066493
C            -1.400000            -7.274613             0.009136
C            -0.700000            -8.487049             0.052859
C             0.700000            -8.487049             0.069804
C             1.400000            -9.699485             0.088350
C             2.800000            -9.699485             0.006350
C             3.500000           -10.911920             0.068280
C             4.900000           -10.911920             0.049578
C             5.600000           -12.124356             0.018501
C             7.000000           -12.124356             0.011766
H             7.550000           -13.076984             0.054825
C            -9.100000            -3.637307             0.086402
C            -9.800000            -4.849742             0.052059
C            -9.100000            -6.062178             0.029362
C            -7.700000            -6.062178             0.007019
H            -9.650000            -2.684679             0.009928
C            -7.000000            -7.274613             0.083219
C            -5.600000            -7.274613             0.098814
C            -4.900000            -8.487049             0.061911
C            -3.500000            -8.487049             0.000591
C            -2.800000            -9.699485             0.030295
C            -1.400000            -9.699485             0.056874
C            -0.700000           -10.911920             0.086246
C             0.700000           -10.911920             0.050058
C             1.400000           -12.124356             0.011121
C             2.800000           -12.124356             0.055510
C             3.500000           -13.336791             0.030762
C             4.900000           -13.336791             0.086752
H             5.450000           -14.289419             0.038122
C           -11.200000            -4.849742             0.034310
C           -11.900000            -6.062178             0.019563
C           -11.200000            -7.274613             0.046398
C            -9.800000            -7.274613             0.025144
H           -11.750000            -3.897114             0.078588
C            -9.100000            -8.487049             0.069090
C            -7.700000            -8.487049             0.041746
C            -7.000000            -9.699485             0.082074
C            -5.600000            -9.699485             0.088033
C            -4.900000           -10.911920             0.045229
C            -3.500000           -10.911920             0.024925
C            -2.800000           -12.124356             0.075340
C            -1.400000           -12.124356             0.034882
C            -0.700000           -13.336791             0.017145
C             0.700000           -13.336791             0.066308
C             1.400000           -14.549227             0.091747
C             2.800000           -14.549227             0.048527
H             3.350000           -15.501855             0.009622
C           -13.300000            -6.062178             0.082413
C           -14.000000            -7.274613             0.038135
C           -13.300000            -8.487049             0.084216
C           -11.900000            -8.487049             0.020966
H           -13.850000            -5.109550             0.031702
H           -15.100000            -7.274613             0.045985
H           -13.850000            -9.439677             0.049935
C           -11.200000            -9.699485             0.019103
C            -9.800000            -9.699485             0.027324
H           -11.750000           -10.652112             0.033009
C            -9.100000           -10.911920             0.077147
C            -7.700000           -10.911920             0.062220
H            -9.650000           -11.864548             0.062365
C            -7.000000           -12.124356             0.052843
C            -5.600000           -12.124356             0.078260
H            -7.550000           -13.076984             0.097153
C            -4.900000           -13.336791             0.019197
C            -3.500000           -13.336791             0.057727
H            -5.450000           -14.289419             0.061557
C            -2.800000           -14.549227             0.091165
C            -1.400000           -14.549227             0.000912
H            -3.350000           -15.501855             0.083603
C            -0.700000           -15.761662             0.063111
C             0.700000           -15.761662             0.028886
H            -1.250000           -16.714290             0.017811
H             1.250000           -16.714290             0.052918
