156
isomero_26_17
C             0.700000             1.212436             0.016232
C            -0.700000             1.212436             0.010238
C            -1.400000             0.000000             0.046896
C            -0.700000            -1.212436             0.099524
C             0.700000            -1.212436             0.092330
C             1.400000            -0.000000             0.025699
H             1.250000             2.165064             0.046787
H            -1.250000             2.165064             0.011033
C             2.800000             0.000000             0.023308
C             1.400000            -2.424871             0.055875
C             2.800000            -2.424871             0.055087
C             3.500000            -1.212436             0.051167
H             3.350000             0.952628             0.038969
C             4.900000            -1.212436             0.065885
C             3.500000            -3.637307             0.045339
C             4.900000            -3.637307             0.069408
C             5.600000            -2.424871             0.054377
H             5.450000            -0.259808             0.069587
C             7.000000            -2.424871             0.005585
C             5.600000            -4.849742             0.051606
C             7.000000            -4.849742             0.085625
C             7.700000            -3.637307             0.050081
H             7.550000            -1.472243             0.027561
C             9.100000            -3.637307             0.045621
C             7.700000            -6.062178             0.080338
C             9.100000            -6.062178             0.063019
C             9.800000            -4.849742             0.091388
H             9.650000            -2.684679             0.006708
C            11.200000            -4.849742             0.068320
C             9.800000            -7.274613             0.077481
C            11.200000            -7.274613             0.041296
C            11.900000            -6.062178             0.073741
H            11.750000            -3.897114             0.071859
C            13.300000            -6.062178             0.042554
C            11.900000            -8.487049             0.091787
C            13.300000            -8.487049             0.000870
C            14.000000            -7.274613             0.001502
H            13.850000            -5.109550             0.096825
H            13.850000            -9.439677             0.083735
H            15.100000            -7.274613             0.056702
C            -2.800000             0.000000             0.089744
C            -3.500000            -1.212436             0.038926
C            -2.800000            -2.424871             0.099227
N            -1.400000            -2.424871             0.046369
H            -3.350000             0.952628             0.092810
B            -0.700000            -3.637307             0.058314
C             0.700000            -3.637307             0.007334
C             1.400000            -4.849742             0.041930
C             2.800000            -4.849742             0.053571
C             3.500000            -6.062178             0.052964
C             4.900000            -6.062178             0.098943
C             5.600000            -7.274613             0.031010
C             7.000000            -7.274613             0.076537
C             7.700000            -8.487049             0.069689
C             9.100000            -8.487049             0.040893
C             9.800000            -9.699485             0.065713
C            11.200000            -9.699485             0.074579
H            11.750000           -10.652112             0.005705
C            -4.900000            -1.212436             0.039608
C            -5.600000            -2.424871             0.058626
C            -4.900000            -3.637307             0.046841
C            -3.500000            -3.637307             0.055698
H            -5.450000            -0.259808             0.021477
C            -2.800000            -4.849742             0.087193
C            -1.400000            -4.849742             0.038917
C            -0.700000            -6.062178             0.064908
C             0.700000            -6.062178             0.029821
C             1.400000            -7.274613             0.073768
C             2.800000            -7.274613             0.070156
C             3.500000            -8.487049             0.001105
C             4.900000            -8.487049             0.061070
C             5.600000            -9.699485             0.053985
C             7.000000            -9.699485             0.074630
C             7.700000           -10.911920             0.050750
C             9.100000           -10.911920             0.069435
H             9.650000           -11.864548             0.051475
C            -7.000000            -2.424871             0.067747
C            -7.700000            -3.637307             0.032850
C            -7.000000            -4.849742             0.007997
C            -5.600000            -4.849742             0.088757
H            -7.550000            -1.472243             0.093373
C            -4.900000            -6.062178             0.002951
C            -3.500000            -6.062178             0.046667
C            -2.800000            -7.274613             0.047906
C            -1.400000            -7.274613             0.014009
C            -0.700000            -8.487049             0.072263
C             0.700000            -8.487049             0.054227
C             1.400000            -9.699485             0.031419
C             2.800000            -9.699485             0.015118
C             3.500000           -10.911920             0.077959
C             4.900000           -10.911920             0.033559
C             5.600000           -12.124356             0.056731
C             7.000000           -12.124356             0.074887
H             7.550000           -13.076984             0.033337
C            -9.100000            -3.637307             0.030097
C            -9.800000            -4.849742             0.035618
C            -9.100000            -6.062178             0.057499
C            -7.700000            -6.062178             0.086241
H            -9.650000            -2.684679             0.051028
C            -7.000000            -7.274613             0.060513
C            -5.600000            -7.274613             0.029020
C            -4.900000            -8.487049             0.076077
C            -3.500000            -8.487049             0.043302
C            -2.800000            -9.699485             0.004264
C            -1.400000            -9.699485             0.009340
C            -0.700000           -10.911920             0.004565
C             0.700000           -10.911920             0.052811
C             1.400000           -12.124356             0.007733
C             2.800000           -12.124356             0.097954
C             3.500000           -13.336791             0.091093
C             4.900000           -13.336791             0.041402
H             5.450000           -14.289419             0.056161
C           -11.200000            -4.849742             0.002989
C           -11.900000            -6.062178             0.033145
C           -11.200000            -7.274613             0.068775
C            -9.800000            -7.274613             0.040735
H           -11.750000            -3.897114             0.057908
C            -9.100000            -8.487049             0.010945
C            -7.700000            -8.487049             0.056228
C            -7.000000            -9.699485             0.072936
C            -5.600000            -9.699485             0.015038
C            -4.900000           -10.911920             0.009779
C            -3.500000           -10.911920             0.057532
C            -2.800000           -12.124356             0.061187
C            -1.400000           -12.124356             0.044899
C            -0.700000           -13.336791             0.099270
C             0.700000           -13.336791             0.019061
C             1.400000           -14.549227             0.050780
C             2.800000           -14.549227             0.001854
H             3.350000           -15.501855             0.098144
C           -13.300000            -6.062178             0.048854
C           -14.000000            -7.274613             0.089841
C           -13.300000            -8.487049             0.087424
C           -11.900000            -8.487049             0.042047
H           -13.850000            -5.109550             0.045582
H           -15.100000            -7.274613             0.002358
H           -13.850000            -9.439677             0.053944
C           -11.200000            -9.699485             0.001195
C            -9.800000            -9.699485             0.079063
H           -11.750000           -10.652112             0.010504
C            -9.100000           -10.911920             0.010659
C            -7.700000           -10.911920             0.095465
H            -9.650000           -11.864548             0.061288
C            -7.000000           -12.124356             0.028784
C            -5.600000           -12.124356             0.018145
H            -7.550000           -13.076984             0.057007
C            -4.900000           -13.336791             0.026608
C            -3.500000           -13.336791             0.022322
H            -5.450000           -14.289419             0.000521
C            -2.800000           -14.549227             0.038443
C            -1.400000           -14.549227             0.090005
H            -3.350000           -15.501855             0.035862
C            -0.700000           -15.761662             0.084456
C             0.700000           -15.761662             0.026378
H            -1.250000           -16.714290             0.003193
H             1.250000           -16.714290             0.079799
