156
isomero_68_54
C             0.700000             1.212436             0.073154
C            -0.700000             1.212436             0.036673
C            -1.400000             0.000000             0.049627
C            -0.700000            -1.212436             0.023178
C             0.700000            -1.212436             0.026620
C             1.400000            -0.000000             0.099889
H             1.250000             2.165064             0.091312
H            -1.250000             2.165064             0.057911
C             2.800000             0.000000             0.038726
C             1.400000            -2.424871             0.016628
C             2.800000            -2.424871             0.083967
C             3.500000            -1.212436             0.029890
H             3.350000             0.952628             0.069288
C             4.900000            -1.212436             0.015283
C             3.500000            -3.637307             0.053367
C             4.900000            -3.637307             0.016040
C             5.600000            -2.424871             0.003362
H             5.450000            -0.259808             0.095537
C             7.000000            -2.424871             0.011634
C             5.600000            -4.849742             0.052318
C             7.000000            -4.849742             0.074998
C             7.700000            -3.637307             0.050741
H             7.550000            -1.472243             0.036101
C             9.100000            -3.637307             0.048400
C             7.700000            -6.062178             0.025077
C             9.100000            -6.062178             0.086305
C             9.800000            -4.849742             0.008287
H             9.650000            -2.684679             0.099861
C            11.200000            -4.849742             0.083667
C             9.800000            -7.274613             0.051562
C            11.200000            -7.274613             0.022567
C            11.900000            -6.062178             0.088280
H            11.750000            -3.897114             0.024237
C            13.300000            -6.062178             0.068180
C            11.900000            -8.487049             0.005569
C            13.300000            -8.487049             0.026489
C            14.000000            -7.274613             0.090438
H            13.850000            -5.109550             0.012106
H            13.850000            -9.439677             0.085232
H            15.100000            -7.274613             0.032328
C            -2.800000             0.000000             0.031107
C            -3.500000            -1.212436             0.030586
C            -2.800000            -2.424871             0.095075
C            -1.400000            -2.424871             0.013720
H            -3.350000             0.952628             0.003656
C            -0.700000            -3.637307             0.015486
C             0.700000            -3.637307             0.090325
C             1.400000            -4.849742             0.092508
C             2.800000            -4.849742             0.064728
C             3.500000            -6.062178             0.082336
C             4.900000            -6.062178             0.042415
C             5.600000            -7.274613             0.081827
C             7.000000            -7.274613             0.025755
C             7.700000            -8.487049             0.003347
C             9.100000            -8.487049             0.053099
C             9.800000            -9.699485             0.018853
C            11.200000            -9.699485             0.051415
H            11.750000           -10.652112             0.034061
C            -4.900000            -1.212436             0.026624
C            -5.600000            -2.424871             0.033716
C            -4.900000            -3.637307             0.023704
C            -3.500000            -3.637307             0.004028
H            -5.450000            -0.259808             0.053682
C            -2.800000            -4.849742             0.022569
C            -1.400000            -4.849742             0.059733
C            -0.700000            -6.062178             0.055815
C             0.700000            -6.062178             0.081323
C             1.400000            -7.274613             0.049968
C             2.800000            -7.274613             0.096399
C             3.500000            -8.487049             0.085036
C             4.900000            -8.487049             0.061086
C             5.600000            -9.699485             0.002993
C             7.000000            -9.699485             0.004333
C             7.700000           -10.911920             0.097126
C             9.100000           -10.911920             0.089340
H             9.650000           -11.864548             0.004366
C            -7.000000            -2.424871             0.048682
C            -7.700000            -3.637307             0.045341
C            -7.000000            -4.849742             0.007937
C            -5.600000            -4.849742             0.010058
H            -7.550000            -1.472243             0.088019
C            -4.900000            -6.062178             0.064866
C            -3.500000            -6.062178             0.089361
C            -2.800000            -7.274613             0.012407
C            -1.400000            -7.274613             0.060999
C            -0.700000            -8.487049             0.017272
C             0.700000            -8.487049             0.030400
C             1.400000            -9.699485             0.056262
C             2.800000            -9.699485             0.036504
C             3.500000           -10.911920             0.018139
C             4.900000           -10.911920             0.068208
C             5.600000           -12.124356             0.075616
C             7.000000           -12.124356             0.048284
H             7.550000           -13.076984             0.064029
C            -9.100000            -3.637307             0.007283
C            -9.800000            -4.849742             0.018912
N            -9.100000            -6.062178             0.006052
C            -7.700000            -6.062178             0.058385
H            -9.650000            -2.684679             0.098983
C            -7.000000            -7.274613             0.028044
C            -5.600000            -7.274613             0.015856
C            -4.900000            -8.487049             0.013003
C            -3.500000            -8.487049             0.086226
C            -2.800000            -9.699485             0.099730
C            -1.400000            -9.699485             0.041185
C            -0.700000           -10.911920             0.021816
C             0.700000           -10.911920             0.064593
C             1.400000           -12.124356             0.049073
C             2.800000           -12.124356             0.015298
C             3.500000           -13.336791             0.042410
C             4.900000           -13.336791             0.062308
H             5.450000           -14.289419             0.095188
C           -11.200000            -4.849742             0.009549
C           -11.900000            -6.062178             0.010945
C           -11.200000            -7.274613             0.071921
B            -9.800000            -7.274613             0.083165
H           -11.750000            -3.897114             0.082213
C            -9.100000            -8.487049             0.085030
C            -7.700000            -8.487049             0.053466
C            -7.000000            -9.699485             0.050448
C            -5.600000            -9.699485             0.056716
C            -4.900000           -10.911920             0.049363
C            -3.500000           -10.911920             0.097875
C            -2.800000           -12.124356             0.067528
C            -1.400000           -12.124356             0.067291
C            -0.700000           -13.336791             0.091901
C             0.700000           -13.336791             0.092343
C             1.400000           -14.549227             0.058563
C             2.800000           -14.549227             0.055047
H             3.350000           -15.501855             0.013781
C           -13.300000            -6.062178             0.059955
C           -14.000000            -7.274613             0.076634
C           -13.300000            -8.487049             0.054721
C           -11.900000            -8.487049             0.026377
H           -13.850000            -5.109550             0.022502
H           -15.100000            -7.274613             0.062224
H           -13.850000            -9.439677             0.039280
C           -11.200000            -9.699485             0.088069
C            -9.800000            -9.699485             0.000855
H           -11.750000           -10.652112             0.046238
C            -9.100000           -10.911920             0.012379
C            -7.700000           -10.911920             0.003157
H            -9.650000           -11.864548             0.082809
C            -7.000000           -12.124356             0.027732
C            -5.600000           -12.124356             0.026776
H            -7.550000           -13.076984             0.004328
C            -4.900000           -13.336791             0.020697
C            -3.500000           -13.336791             0.048567
H            -5.450000           -14.289419             0.076198
C            -2.800000           -14.549227             0.032123
C            -1.400000           -14.549227             0.029384
H            -3.350000           -15.501855             0.094638
C            -0.700000           -15.761662             0.003686
C             0.700000           -15.761662             0.095031
H            -1.250000           -16.714290             0.031594
H             1.250000           -16.714290             0.099143
