156
isomero_29_40
C             0.700000             1.212436             0.064278
C            -0.700000             1.212436             0.018284
C            -1.400000             0.000000             0.062920
C            -0.700000            -1.212436             0.064864
C             0.700000            -1.212436             0.039609
C             1.400000            -0.000000             0.024709
H             1.250000             2.165064             0.032713
H            -1.250000             2.165064             0.079920
C             2.800000             0.000000             0.008160
C             1.400000            -2.424871             0.012444
C             2.800000            -2.424871             0.011213
C             3.500000            -1.212436             0.004771
H             3.350000             0.952628             0.058630
C             4.900000            -1.212436             0.040441
C             3.500000            -3.637307             0.039511
C             4.900000            -3.637307             0.006775
C             5.600000            -2.424871             0.053725
H             5.450000            -0.259808             0.018533
C             7.000000            -2.424871             0.015194
C             5.600000            -4.849742             0.062420
C             7.000000            -4.849742             0.085934
C             7.700000            -3.637307             0.088264
H             7.550000            -1.472243             0.036656
C             9.100000            -3.637307             0.017399
C             7.700000            -6.062178             0.023629
C             9.100000            -6.062178             0.093598
C             9.800000            -4.849742             0.017376
H             9.650000            -2.684679             0.088220
C            11.200000            -4.849742             0.052006
C             9.800000            -7.274613             0.080627
C            11.200000            -7.274613             0.022502
C            11.900000            -6.062178             0.091169
H            11.750000            -3.897114             0.045539
C            13.300000            -6.062178             0.089415
C            11.900000            -8.487049             0.002095
C            13.300000            -8.487049             0.097602
C            14.000000            -7.274613             0.053750
H            13.850000            -5.109550             0.047144
H            13.850000            -9.439677             0.075828
H            15.100000            -7.274613             0.093109
C            -2.800000             0.000000             0.069626
C            -3.500000            -1.212436             0.073881
C            -2.800000            -2.424871             0.022786
C            -1.400000            -2.424871             0.003686
H            -3.350000             0.952628             0.003488
C            -0.700000            -3.637307             0.032014
C             0.700000            -3.637307             0.093845
C             1.400000            -4.849742             0.008853
C             2.800000            -4.849742             0.097087
C             3.500000            -6.062178             0.052741
C             4.900000            -6.062178             0.019027
C             5.600000            -7.274613             0.016923
C             7.000000            -7.274613             0.031302
C             7.700000            -8.487049             0.099192
C             9.100000            -8.487049             0.044853
C             9.800000            -9.699485             0.083759
C            11.200000            -9.699485             0.046850
H            11.750000           -10.652112             0.015768
C            -4.900000            -1.212436             0.065278
C            -5.600000            -2.424871             0.011501
C            -4.900000            -3.637307             0.080233
C            -3.500000            -3.637307             0.005982
H            -5.450000            -0.259808             0.095042
C            -2.800000            -4.849742             0.013465
C            -1.400000            -4.849742             0.043764
C            -0.700000            -6.062178             0.040352
C             0.700000            -6.062178             0.008636
C             1.400000            -7.274613             0.051697
C             2.800000            -7.274613             0.040296
C             3.500000            -8.487049             0.098195
C             4.900000            -8.487049             0.018437
C             5.600000            -9.699485             0.062297
C             7.000000            -9.699485             0.017753
C             7.700000           -10.911920             0.007178
C             9.100000           -10.911920             0.072010
H             9.650000           -11.864548             0.076950
C            -7.000000            -2.424871             0.008988
B            -7.700000            -3.637307             0.079423
N            -7.000000            -4.849742             0.051650
C            -5.600000            -4.849742             0.046634
H            -7.550000            -1.472243             0.022377
C            -4.900000            -6.062178             0.013558
C            -3.500000            -6.062178             0.091475
C            -2.800000            -7.274613             0.068849
C            -1.400000            -7.274613             0.082460
C            -0.700000            -8.487049             0.064874
C             0.700000            -8.487049             0.064761
C             1.400000            -9.699485             0.040712
C             2.800000            -9.699485             0.069150
C             3.500000           -10.911920             0.015187
C             4.900000           -10.911920             0.064210
C             5.600000           -12.124356             0.078481
C             7.000000           -12.124356             0.075337
H             7.550000           -13.076984             0.037737
C            -9.100000            -3.637307             0.018473
C            -9.800000            -4.849742             0.040752
C            -9.100000            -6.062178             0.039599
C            -7.700000            -6.062178             0.022210
H            -9.650000            -2.684679             0.093668
C            -7.000000            -7.274613             0.089820
C            -5.600000            -7.274613             0.072844
C            -4.900000            -8.487049             0.073670
C            -3.500000            -8.487049             0.043049
C            -2.800000            -9.699485             0.027328
C            -1.400000            -9.699485             0.086027
C            -0.700000           -10.911920             0.096494
C             0.700000           -10.911920             0.069585
C             1.400000           -12.124356             0.011352
C             2.800000           -12.124356             0.014749
C             3.500000           -13.336791             0.021810
C             4.900000           -13.336791             0.069450
H             5.450000           -14.289419             0.091841
C           -11.200000            -4.849742             0.057637
C           -11.900000            -6.062178             0.030695
C           -11.200000            -7.274613             0.002141
C            -9.800000            -7.274613             0.021344
H           -11.750000            -3.897114             0.029291
C            -9.100000            -8.487049             0.031803
C            -7.700000            -8.487049             0.073671
C            -7.000000            -9.699485             0.036891
C            -5.600000            -9.699485             0.074772
C            -4.900000           -10.911920             0.054746
C            -3.500000           -10.911920             0.068774
C            -2.800000           -12.124356             0.030950
C            -1.400000           -12.124356             0.046709
C            -0.700000           -13.336791             0.088761
C             0.700000           -13.336791             0.092569
C             1.400000           -14.549227             0.042694
C             2.800000           -14.549227             0.019284
H             3.350000           -15.501855             0.094681
C           -13.300000            -6.062178             0.095498
C           -14.000000            -7.274613             0.090376
C           -13.300000            -8.487049             0.095932
C           -11.900000            -8.487049             0.017736
H           -13.850000            -5.109550             0.012609
H           -15.100000            -7.274613             0.073034
H           -13.850000            -9.439677             0.087497
C           -11.200000            -9.699485             0.024443
C            -9.800000            -9.699485             0.042352
H           -11.750000           -10.652112             0.081208
C            -9.100000           -10.911920             0.065326
C            -7.700000           -10.911920             0.081559
H            -9.650000           -11.864548             0.049959
C            -7.000000           -12.124356             0.073029
C            -5.600000           -12.124356             0.066301
H            -7.550000           -13.076984             0.025375
C            -4.900000           -13.336791             0.008211
C            -3.500000           -13.336791             0.063280
H            -5.450000           -14.289419             0.043253
C            -2.800000           -14.549227             0.021143
C            -1.400000           -14.549227             0.091186
H            -3.350000           -15.501855             0.066017
C            -0.700000           -15.761662             0.029451
C             0.700000           -15.761662             0.022538
H            -1.250000           -16.714290             0.029785
H             1.250000           -16.714290             0.042668
