156
isomero_5_6
C             0.700000             1.212436             0.014554
C            -0.700000             1.212436             0.029527
B            -1.400000             0.000000             0.038100
C            -0.700000            -1.212436             0.077002
C             0.700000            -1.212436             0.086075
C             1.400000            -0.000000             0.044212
H             1.250000             2.165064             0.047178
H            -1.250000             2.165064             0.074687
C             2.800000             0.000000             0.030647
C             1.400000            -2.424871             0.079559
C             2.800000            -2.424871             0.092599
C             3.500000            -1.212436             0.031528
H             3.350000             0.952628             0.030609
C             4.900000            -1.212436             0.055137
C             3.500000            -3.637307             0.000221
C             4.900000            -3.637307             0.071940
C             5.600000            -2.424871             0.052862
H             5.450000            -0.259808             0.055757
C             7.000000            -2.424871             0.000669
C             5.600000            -4.849742             0.008424
C             7.000000            -4.849742             0.012070
C             7.700000            -3.637307             0.012875
H             7.550000            -1.472243             0.031704
C             9.100000            -3.637307             0.023525
C             7.700000            -6.062178             0.043764
C             9.100000            -6.062178             0.064804
C             9.800000            -4.849742             0.094052
H             9.650000            -2.684679             0.085313
C            11.200000            -4.849742             0.066805
C             9.800000            -7.274613             0.095846
C            11.200000            -7.274613             0.072070
C            11.900000            -6.062178             0.080812
H            11.750000            -3.897114             0.020869
C            13.300000            -6.062178             0.029830
C            11.900000            -8.487049             0.067017
C            13.300000            -8.487049             0.084763
C            14.000000            -7.274613             0.055743
H            13.850000            -5.109550             0.088787
H            13.850000            -9.439677             0.011595
H            15.100000            -7.274613             0.020101
N            -2.800000             0.000000             0.010034
C            -3.500000            -1.212436             0.065171
C            -2.800000            -2.424871             0.020752
C            -1.400000            -2.424871             0.096097
H            -3.350000             0.952628             0.065618
C            -0.700000            -3.637307             0.070949
C             0.700000            -3.637307             0.062378
C             1.400000            -4.849742             0.073849
C             2.800000            -4.849742             0.077245
C             3.500000            -6.062178             0.094154
C             4.900000            -6.062178             0.017012
C             5.600000            -7.274613             0.003626
C             7.000000            -7.274613             0.009385
C             7.700000            -8.487049             0.088071
C             9.100000            -8.487049             0.041935
C             9.800000            -9.699485             0.001687
C            11.200000            -9.699485             0.079550
H            11.750000           -10.652112             0.062937
C            -4.900000            -1.212436             0.007806
C            -5.600000            -2.424871             0.000954
C            -4.900000            -3.637307             0.065135
C            -3.500000            -3.637307             0.020219
H            -5.450000            -0.259808             0.085803
C            -2.800000            -4.849742             0.071582
C            -1.400000            -4.849742             0.043780
C            -0.700000            -6.062178             0.002400
C             0.700000            -6.062178             0.097830
C             1.400000            -7.274613             0.016207
C             2.800000            -7.274613             0.011823
C             3.500000            -8.487049             0.099690
C             4.900000            -8.487049             0.078713
C             5.600000            -9.699485             0.085299
C             7.000000            -9.699485             0.091497
C             7.700000           -10.911920             0.001662
C             9.100000           -10.911920             0.093367
H             9.650000           -11.864548             0.062178
C            -7.000000            -2.424871             0.083085
C            -7.700000            -3.637307             0.039584
C            -7.000000            -4.849742             0.043278
C            -5.600000            -4.849742             0.035294
H            -7.550000            -1.472243             0.013783
C            -4.900000            -6.062178             0.026167
C            -3.500000            -6.062178             0.047926
C            -2.800000            -7.274613             0.008763
C            -1.400000            -7.274613             0.026635
C            -0.700000            -8.487049             0.043300
C             0.700000            -8.487049             0.032397
C             1.400000            -9.699485             0.020868
C             2.800000            -9.699485             0.035427
C             3.500000           -10.911920             0.021987
C             4.900000           -10.911920             0.058278
C             5.600000           -12.124356             0.035476
C             7.000000           -12.124356             0.009495
H             7.550000           -13.076984             0.015367
C            -9.100000            -3.637307             0.059174
C            -9.800000            -4.849742             0.054046
C            -9.100000            -6.062178             0.056408
C            -7.700000            -6.062178             0.043992
H            -9.650000            -2.684679             0.003785
C            -7.000000            -7.274613             0.032374
C            -5.600000            -7.274613             0.078344
C            -4.900000            -8.487049             0.024614
C            -3.500000            -8.487049             0.048439
C            -2.800000            -9.699485             0.085537
C            -1.400000            -9.699485             0.066381
C            -0.700000           -10.911920             0.063727
C             0.700000           -10.911920             0.038916
C             1.400000           -12.124356             0.058124
C             2.800000           -12.124356             0.088094
C             3.500000           -13.336791             0.095547
C             4.900000           -13.336791             0.077969
H             5.450000           -14.289419             0.053399
C           -11.200000            -4.849742             0.095149
C           -11.900000            -6.062178             0.094595
C           -11.200000            -7.274613             0.058997
C            -9.800000            -7.274613             0.066230
H           -11.750000            -3.897114             0.012623
C            -9.100000            -8.487049             0.098271
C            -7.700000            -8.487049             0.058664
C            -7.000000            -9.699485             0.040421
C            -5.600000            -9.699485             0.036385
C            -4.900000           -10.911920             0.023232
C            -3.500000           -10.911920             0.084717
C            -2.800000           -12.124356             0.061207
C            -1.400000           -12.124356             0.008639
C            -0.700000           -13.336791             0.037596
C             0.700000           -13.336791             0.064588
C             1.400000           -14.549227             0.055204
C             2.800000           -14.549227             0.035524
H             3.350000           -15.501855             0.090086
C           -13.300000            -6.062178             0.044431
C           -14.000000            -7.274613             0.097677
C           -13.300000            -8.487049             0.062600
C           -11.900000            -8.487049             0.049441
H           -13.850000            -5.109550             0.018047
H           -15.100000            -7.274613             0.024264
H           -13.850000            -9.439677             0.043941
C           -11.200000            -9.699485             0.071873
C            -9.800000            -9.699485             0.045209
H           -11.750000           -10.652112             0.091938
C            -9.100000           -10.911920             0.090183
C            -7.700000           -10.911920             0.035825
H            -9.650000           -11.864548             0.012799
C            -7.000000           -12.124356             0.034855
C            -5.600000           -12.124356             0.009634
H            -7.550000           -13.076984             0.034322
C            -4.900000           -13.336791             0.025676
C            -3.500000           -13.336791             0.021064
H            -5.450000           -14.289419             0.076575
C            -2.800000           -14.549227             0.019094
C            -1.400000           -14.549227             0.034051
H            -3.350000           -15.501855             0.069379
C            -0.700000           -15.761662             0.057684
C             0.700000           -15.761662             0.080747
H            -1.250000           -16.714290             0.026463
H             1.250000           -16.714290             0.082559
