156
isomero_12_19
C             0.700000             1.212436             0.094238
C            -0.700000             1.212436             0.013166
C            -1.400000             0.000000             0.045695
C            -0.700000            -1.212436             0.080658
C             0.700000            -1.212436             0.060648
C             1.400000            -0.000000             0.017793
H             1.250000             2.165064             0.028027
H            -1.250000             2.165064             0.004695
C             2.800000             0.000000             0.003952
C             1.400000            -2.424871             0.025349
C             2.800000            -2.424871             0.090670
C             3.500000            -1.212436             0.027993
H             3.350000             0.952628             0.028939
C             4.900000            -1.212436             0.066303
C             3.500000            -3.637307             0.075024
C             4.900000            -3.637307             0.037176
C             5.600000            -2.424871             0.053261
H             5.450000            -0.259808             0.073518
C             7.000000            -2.424871             0.077585
C             5.600000            -4.849742             0.005999
C             7.000000            -4.849742             0.016547
C             7.700000            -3.637307             0.063782
H             7.550000            -1.472243             0.097079
C             9.100000            -3.637307             0.024924
C             7.700000            -6.062178             0.071958
C             9.100000            -6.062178             0.000166
C             9.800000            -4.849742             0.062395
H             9.650000            -2.684679             0.001284
C            11.200000            -4.849742             0.076223
C             9.800000            -7.274613             0.082371
C            11.200000            -7.274613             0.021556
C            11.900000            -6.062178             0.035196
H            11.750000            -3.897114             0.078236
C            13.300000            -6.062178             0.060442
C            11.900000            -8.487049             0.036838
C            13.300000            -8.487049             0.075317
C            14.000000            -7.274613             0.063477
H            13.850000            -5.109550             0.093129
H            13.850000            -9.439677             0.007346
H            15.100000            -7.274613             0.033963
C            -2.800000             0.000000             0.033707
C            -3.500000            -1.212436             0.012991
C            -2.800000            -2.424871             0.037192
C            -1.400000            -2.424871             0.009202
H            -3.350000             0.952628             0.005842
C            -0.700000            -3.637307             0.031334
C             0.700000            -3.637307             0.007138
C             1.400000            -4.849742             0.078147
C             2.800000            -4.849742             0.059765
C             3.500000            -6.062178             0.061478
C             4.900000            -6.062178             0.053057
C             5.600000            -7.274613             0.016573
C             7.000000            -7.274613             0.097906
C             7.700000            -8.487049             0.057981
C             9.100000            -8.487049             0.064730
C             9.800000            -9.699485             0.027550
C            11.200000            -9.699485             0.020927
H            11.750000           -10.652112             0.039841
B            -4.900000            -1.212436             0.040136
N            -5.600000            -2.424871             0.031369
C            -4.900000            -3.637307             0.068736
C            -3.500000            -3.637307             0.099874
H            -5.450000            -0.259808             0.035660
C            -2.800000            -4.849742             0.097036
C            -1.400000            -4.849742             0.091385
C            -0.700000            -6.062178             0.079538
C             0.700000            -6.062178             0.002780
C             1.400000            -7.274613             0.062066
C             2.800000            -7.274613             0.040215
C             3.500000            -8.487049             0.009200
C             4.900000            -8.487049             0.029353
C             5.600000            -9.699485             0.098743
C             7.000000            -9.699485             0.076963
C             7.700000           -10.911920             0.002146
C             9.100000           -10.911920             0.038753
H             9.650000           -11.864548             0.081530
C            -7.000000            -2.424871             0.060033
C            -7.700000            -3.637307             0.011281
C            -7.000000            -4.849742             0.041172
C            -5.600000            -4.849742             0.089549
H            -7.550000            -1.472243             0.096531
C            -4.900000            -6.062178             0.012110
C            -3.500000            -6.062178             0.001251
C            -2.800000            -7.274613             0.069539
C            -1.400000            -7.274613             0.012587
C            -0.700000            -8.487049             0.069607
C             0.700000            -8.487049             0.058658
C             1.400000            -9.699485             0.095565
C             2.800000            -9.699485             0.026327
C             3.500000           -10.911920             0.009952
C             4.900000           -10.911920             0.017568
C             5.600000           -12.124356             0.031728
C             7.000000           -12.124356             0.027474
H             7.550000           -13.076984             0.036428
C            -9.100000            -3.637307             0.002369
C            -9.800000            -4.849742             0.041046
C            -9.100000            -6.062178             0.087519
C            -7.700000            -6.062178             0.052724
H            -9.650000            -2.684679             0.024296
C            -7.000000            -7.274613             0.016602
C            -5.600000            -7.274613             0.026362
C            -4.900000            -8.487049             0.090796
C            -3.500000            -8.487049             0.005403
C            -2.800000            -9.699485             0.029663
C            -1.400000            -9.699485             0.008007
C            -0.700000           -10.911920             0.073798
C             0.700000           -10.911920             0.057968
C             1.400000           -12.124356             0.054306
C             2.800000           -12.124356             0.022750
C             3.500000           -13.336791             0.069921
C             4.900000           -13.336791             0.032879
H             5.450000           -14.289419             0.076211
C           -11.200000            -4.849742             0.000456
C           -11.900000            -6.062178             0.002860
C           -11.200000            -7.274613             0.043719
C            -9.800000            -7.274613             0.032726
H           -11.750000            -3.897114             0.040791
C            -9.100000            -8.487049             0.082354
C            -7.700000            -8.487049             0.031721
C            -7.000000            -9.699485             0.051995
C            -5.600000            -9.699485             0.059196
C            -4.900000           -10.911920             0.099482
C            -3.500000           -10.911920             0.093687
C            -2.800000           -12.124356             0.016304
C            -1.400000           -12.124356             0.016100
C            -0.700000           -13.336791             0.049209
C             0.700000           -13.336791             0.077218
C             1.400000           -14.549227             0.079941
C             2.800000           -14.549227             0.057067
H             3.350000           -15.501855             0.044281
C           -13.300000            -6.062178             0.061162
C           -14.000000            -7.274613             0.095577
C           -13.300000            -8.487049             0.038647
C           -11.900000            -8.487049             0.042567
H           -13.850000            -5.109550             0.073858
H           -15.100000            -7.274613             0.064569
H           -13.850000            -9.439677             0.038213
C           -11.200000            -9.699485             0.071977
C            -9.800000            -9.699485             0.009770
H           -11.750000           -10.652112             0.036196
C            -9.100000           -10.911920             0.021422
C            -7.700000           -10.911920             0.090642
H            -9.650000           -11.864548             0.070718
C            -7.000000           -12.124356             0.094645
C            -5.600000           -12.124356             0.094137
H            -7.550000           -13.076984             0.018489
C            -4.900000           -13.336791             0.076451
C            -3.500000           -13.336791             0.014119
H            -5.450000           -14.289419             0.041454
C            -2.800000           -14.549227             0.094140
C            -1.400000           -14.549227             0.038632
H            -3.350000           -15.501855             0.078473
C            -0.700000           -15.761662             0.023255
C             0.700000           -15.761662             0.044620
H            -1.250000           -16.714290             0.099805
H             1.250000           -16.714290             0.024357
