156
isomero_42_55
C             0.700000             1.212436             0.064615
C            -0.700000             1.212436             0.010181
C            -1.400000             0.000000             0.088918
C            -0.700000            -1.212436             0.080850
C             0.700000            -1.212436             0.018744
C             1.400000            -0.000000             0.006344
H             1.250000             2.165064             0.011946
H            -1.250000             2.165064             0.037642
C             2.800000             0.000000             0.005721
C             1.400000            -2.424871             0.033251
C             2.800000            -2.424871             0.038573
C             3.500000            -1.212436             0.058574
H             3.350000             0.952628             0.088511
C             4.900000            -1.212436             0.044745
C             3.500000            -3.637307             0.005590
C             4.900000            -3.637307             0.065903
C             5.600000            -2.424871             0.001331
H             5.450000            -0.259808             0.057243
C             7.000000            -2.424871             0.022423
C             5.600000            -4.849742             0.012794
C             7.000000            -4.849742             0.015634
C             7.700000            -3.637307             0.033443
H             7.550000            -1.472243             0.034763
C             9.100000            -3.637307             0.060142
C             7.700000            -6.062178             0.067744
C             9.100000            -6.062178             0.085483
C             9.800000            -4.849742             0.026945
H             9.650000            -2.684679             0.077244
C            11.200000            -4.849742             0.013929
C             9.800000            -7.274613             0.099045
C            11.200000            -7.274613             0.094001
C            11.900000            -6.062178             0.012208
H            11.750000            -3.897114             0.067051
C            13.300000            -6.062178             0.044814
C            11.900000            -8.487049             0.000107
C            13.300000            -8.487049             0.030504
C            14.000000            -7.274613             0.095939
H            13.850000            -5.109550             0.001459
H            13.850000            -9.439677             0.090955
H            15.100000            -7.274613             0.069604
C            -2.800000             0.000000             0.062889
C            -3.500000            -1.212436             0.092898
C            -2.800000            -2.424871             0.038486
C            -1.400000            -2.424871             0.083542
H            -3.350000             0.952628             0.094760
C            -0.700000            -3.637307             0.061676
C             0.700000            -3.637307             0.088598
C             1.400000            -4.849742             0.006601
C             2.800000            -4.849742             0.030474
C             3.500000            -6.062178             0.043813
C             4.900000            -6.062178             0.032973
C             5.600000            -7.274613             0.018797
C             7.000000            -7.274613             0.029103
C             7.700000            -8.487049             0.006615
C             9.100000            -8.487049             0.008404
C             9.800000            -9.699485             0.000769
C            11.200000            -9.699485             0.030193
H            11.750000           -10.652112             0.000709
C            -4.900000            -1.212436             0.018840
C            -5.600000            -2.424871             0.058788
C            -4.900000            -3.637307             0.053361
C            -3.500000            -3.637307             0.010629
H            -5.450000            -0.259808             0.099220
C            -2.800000            -4.849742             0.078720
C            -1.400000            -4.849742             0.066157
C            -0.700000            -6.062178             0.009211
C             0.700000            -6.062178             0.061483
C             1.400000            -7.274613             0.088530
C             2.800000            -7.274613             0.009505
C             3.500000            -8.487049             0.060569
C             4.900000            -8.487049             0.024696
C             5.600000            -9.699485             0.042293
C             7.000000            -9.699485             0.068416
C             7.700000           -10.911920             0.008765
C             9.100000           -10.911920             0.001117
H             9.650000           -11.864548             0.037747
C            -7.000000            -2.424871             0.060639
C            -7.700000            -3.637307             0.010907
C            -7.000000            -4.849742             0.070819
C            -5.600000            -4.849742             0.089843
H            -7.550000            -1.472243             0.009840
C            -4.900000            -6.062178             0.025753
C            -3.500000            -6.062178             0.048055
C            -2.800000            -7.274613             0.050566
C            -1.400000            -7.274613             0.047563
C            -0.700000            -8.487049             0.039387
C             0.700000            -8.487049             0.004712
C             1.400000            -9.699485             0.066195
C             2.800000            -9.699485             0.097971
C             3.500000           -10.911920             0.057589
C             4.900000           -10.911920             0.079707
C             5.600000           -12.124356             0.034494
C             7.000000           -12.124356             0.047418
H             7.550000           -13.076984             0.058786
C            -9.100000            -3.637307             0.021568
C            -9.800000            -4.849742             0.024101
C            -9.100000            -6.062178             0.068634
C            -7.700000            -6.062178             0.052357
H            -9.650000            -2.684679             0.028311
C            -7.000000            -7.274613             0.031546
C            -5.600000            -7.274613             0.096739
C            -4.900000            -8.487049             0.048701
C            -3.500000            -8.487049             0.024276
C            -2.800000            -9.699485             0.064115
C            -1.400000            -9.699485             0.067815
C            -0.700000           -10.911920             0.073387
C             0.700000           -10.911920             0.031918
C             1.400000           -12.124356             0.082095
C             2.800000           -12.124356             0.091684
C             3.500000           -13.336791             0.004657
C             4.900000           -13.336791             0.003557
H             5.450000           -14.289419             0.050379
B           -11.200000            -4.849742             0.070294
N           -11.900000            -6.062178             0.050612
C           -11.200000            -7.274613             0.004718
C            -9.800000            -7.274613             0.097231
H           -11.750000            -3.897114             0.074820
C            -9.100000            -8.487049             0.082082
C            -7.700000            -8.487049             0.003393
C            -7.000000            -9.699485             0.096152
C            -5.600000            -9.699485             0.022394
C            -4.900000           -10.911920             0.085988
C            -3.500000           -10.911920             0.042270
C            -2.800000           -12.124356             0.055598
C            -1.400000           -12.124356             0.021356
C            -0.700000           -13.336791             0.084646
C             0.700000           -13.336791             0.042033
C             1.400000           -14.549227             0.004132
C             2.800000           -14.549227             0.055506
H             3.350000           -15.501855             0.040982
C           -13.300000            -6.062178             0.076678
C           -14.000000            -7.274613             0.076325
C           -13.300000            -8.487049             0.005451
C           -11.900000            -8.487049             0.098750
H           -13.850000            -5.109550             0.020001
H           -15.100000            -7.274613             0.067585
H           -13.850000            -9.439677             0.037204
C           -11.200000            -9.699485             0.017009
C            -9.800000            -9.699485             0.066408
H           -11.750000           -10.652112             0.027992
C            -9.100000           -10.911920             0.091649
C            -7.700000           -10.911920             0.071556
H            -9.650000           -11.864548             0.070476
C            -7.000000           -12.124356             0.029286
C            -5.600000           -12.124356             0.090395
H            -7.550000           -13.076984             0.076685
C            -4.900000           -13.336791             0.039322
C            -3.500000           -13.336791             0.055499
H            -5.450000           -14.289419             0.003796
C            -2.800000           -14.549227             0.026642
C            -1.400000           -14.549227             0.000649
H            -3.350000           -15.501855             0.070915
C            -0.700000           -15.761662             0.024180
C             0.700000           -15.761662             0.023009
H            -1.250000           -16.714290             0.044057
H             1.250000           -16.714290             0.076667
