156
isomero_2_1
C             0.700000             1.212436             0.071334
C            -0.700000             1.212436             0.048344
C            -1.400000             0.000000             0.072037
C            -0.700000            -1.212436             0.017624
C             0.700000            -1.212436             0.089847
C             1.400000            -0.000000             0.061591
H             1.250000             2.165064             0.034821
H            -1.250000             2.165064             0.002539
C             2.800000             0.000000             0.046466
C             1.400000            -2.424871             0.002850
C             2.800000            -2.424871             0.082564
C             3.500000            -1.212436             0.011823
H             3.350000             0.952628             0.080052
C             4.900000            -1.212436             0.066027
C             3.500000            -3.637307             0.098834
C             4.900000            -3.637307             0.084758
C             5.600000            -2.424871             0.055494
H             5.450000            -0.259808             0.079730
C             7.000000            -2.424871             0.002597
C             5.600000            -4.849742             0.030244
C             7.000000            -4.849742             0.019223
C             7.700000            -3.637307             0.006246
H             7.550000            -1.472243             0.053260
C             9.100000            -3.637307             0.098297
C             7.700000            -6.062178             0.055297
C             9.100000            -6.062178             0.065364
C             9.800000            -4.849742             0.063978
H             9.650000            -2.684679             0.085052
C            11.200000            -4.849742             0.002439
C             9.800000            -7.274613             0.072516
C            11.200000            -7.274613             0.010782
C            11.900000            -6.062178             0.079557
H            11.750000            -3.897114             0.093890
C            13.300000            -6.062178             0.033696
C            11.900000            -8.487049             0.013147
C            13.300000            -8.487049             0.090073
C            14.000000            -7.274613             0.056976
H            13.850000            -5.109550             0.012621
H            13.850000            -9.439677             0.029725
H            15.100000            -7.274613             0.047070
C            -2.800000             0.000000             0.073522
C            -3.500000            -1.212436             0.053264
C            -2.800000            -2.424871             0.083333
C            -1.400000            -2.424871             0.022838
H            -3.350000             0.952628             0.091466
C            -0.700000            -3.637307             0.071456
C             0.700000            -3.637307             0.051784
C             1.400000            -4.849742             0.056441
C             2.800000            -4.849742             0.084910
C             3.500000            -6.062178             0.072883
C             4.900000            -6.062178             0.064535
C             5.600000            -7.274613             0.020939
C             7.000000            -7.274613             0.017884
C             7.700000            -8.487049             0.032168
C             9.100000            -8.487049             0.061621
C             9.800000            -9.699485             0.010068
C            11.200000            -9.699485             0.055813
H            11.750000           -10.652112             0.068409
C            -4.900000            -1.212436             0.035930
C            -5.600000            -2.424871             0.024463
C            -4.900000            -3.637307             0.076782
C            -3.500000            -3.637307             0.003148
H            -5.450000            -0.259808             0.021508
C            -2.800000            -4.849742             0.084251
C            -1.400000            -4.849742             0.029804
C            -0.700000            -6.062178             0.086805
C             0.700000            -6.062178             0.046988
C             1.400000            -7.274613             0.056804
C             2.800000            -7.274613             0.098954
C             3.500000            -8.487049             0.027772
C             4.900000            -8.487049             0.051247
C             5.600000            -9.699485             0.095152
C             7.000000            -9.699485             0.070948
C             7.700000           -10.911920             0.032617
C             9.100000           -10.911920             0.003297
H             9.650000           -11.864548             0.074930
C            -7.000000            -2.424871             0.023863
C            -7.700000            -3.637307             0.019627
C            -7.000000            -4.849742             0.022296
C            -5.600000            -4.849742             0.025296
H            -7.550000            -1.472243             0.058604
C            -4.900000            -6.062178             0.035735
C            -3.500000            -6.062178             0.016349
C            -2.800000            -7.274613             0.055804
C            -1.400000            -7.274613             0.072117
C            -0.700000            -8.487049             0.097134
C             0.700000            -8.487049             0.096558
C             1.400000            -9.699485             0.031424
C             2.800000            -9.699485             0.042727
C             3.500000           -10.911920             0.043467
C             4.900000           -10.911920             0.055120
C             5.600000           -12.124356             0.005087
C             7.000000           -12.124356             0.088259
H             7.550000           -13.076984             0.011480
C            -9.100000            -3.637307             0.061727
C            -9.800000            -4.849742             0.059505
C            -9.100000            -6.062178             0.001667
C            -7.700000            -6.062178             0.098417
H            -9.650000            -2.684679             0.062840
C            -7.000000            -7.274613             0.056942
C            -5.600000            -7.274613             0.089803
C            -4.900000            -8.487049             0.021702
C            -3.500000            -8.487049             0.045776
C            -2.800000            -9.699485             0.065383
C            -1.400000            -9.699485             0.019173
C            -0.700000           -10.911920             0.073273
C             0.700000           -10.911920             0.090996
C             1.400000           -12.124356             0.047997
C             2.800000           -12.124356             0.077835
C             3.500000           -13.336791             0.025466
C             4.900000           -13.336791             0.086271
H             5.450000           -14.289419             0.066645
C           -11.200000            -4.849742             0.007548
C           -11.900000            -6.062178             0.027302
C           -11.200000            -7.274613             0.000131
C            -9.800000            -7.274613             0.094669
H           -11.750000            -3.897114             0.015290
C            -9.100000            -8.487049             0.074651
C            -7.700000            -8.487049             0.060748
C            -7.000000            -9.699485             0.078696
C            -5.600000            -9.699485             0.024000
C            -4.900000           -10.911920             0.016505
C            -3.500000           -10.911920             0.011266
C            -2.800000           -12.124356             0.067689
C            -1.400000           -12.124356             0.015046
C            -0.700000           -13.336791             0.063960
C             0.700000           -13.336791             0.041711
C             1.400000           -14.549227             0.048502
C             2.800000           -14.549227             0.066344
H             3.350000           -15.501855             0.047000
C           -13.300000            -6.062178             0.080747
C           -14.000000            -7.274613             0.012067
C           -13.300000            -8.487049             0.099552
C           -11.900000            -8.487049             0.022699
H           -13.850000            -5.109550             0.036686
H           -15.100000            -7.274613             0.042405
H           -13.850000            -9.439677             0.064778
C           -11.200000            -9.699485             0.028089
C            -9.800000            -9.699485             0.005152
H           -11.750000           -10.652112             0.066876
C            -9.100000           -10.911920             0.031854
C            -7.700000           -10.911920             0.096090
H            -9.650000           -11.864548             0.041160
C            -7.000000           -12.124356             0.000605
C            -5.600000           -12.124356             0.042939
H            -7.550000           -13.076984             0.088214
C            -4.900000           -13.336791             0.019805
C            -3.500000           -13.336791             0.059560
H            -5.450000           -14.289419             0.088161
C            -2.800000           -14.549227             0.091516
C            -1.400000           -14.549227             0.084473
H            -3.350000           -15.501855             0.065848
C            -0.700000           -15.761662             0.063502
C             0.700000           -15.761662             0.085082
H            -1.250000           -16.714290             0.055951
H             1.250000           -16.714290             0.089076
