78
isomero_24_15
C             0.700000             1.212436             0.057685
C            -0.700000             1.212436             0.070083
C            -1.400000             0.000000             0.053018
C            -0.700000            -1.212436             0.048976
C             0.700000            -1.212436             0.023944
C             1.400000            -0.000000             0.038015
H             1.250000             2.165064             0.021487
H            -1.250000             2.165064             0.057338
C             2.800000             0.000000             0.097694
C             1.400000            -2.424871             0.013795
N             2.800000            -2.424871             0.010870
C             3.500000            -1.212436             0.059950
H             3.350000             0.952628             0.046635
C             4.900000            -1.212436             0.090728
B             3.500000            -3.637307             0.068849
C             4.900000            -3.637307             0.001619
C             5.600000            -2.424871             0.018416
H             5.450000            -0.259808             0.079801
C             7.000000            -2.424871             0.089082
C             5.600000            -4.849742             0.028556
C             7.000000            -4.849742             0.079875
C             7.700000            -3.637307             0.087619
H             7.550000            -1.472243             0.018921
C             9.100000            -3.637307             0.040037
C             7.700000            -6.062178             0.069888
C             9.100000            -6.062178             0.065082
C             9.800000            -4.849742             0.013412
H             9.650000            -2.684679             0.071500
H             9.650000            -7.014806             0.090133
H            10.900000            -4.849742             0.064675
C            -2.800000             0.000000             0.014731
C            -3.500000            -1.212436             0.032063
C            -2.800000            -2.424871             0.048321
C            -1.400000            -2.424871             0.078872
H            -3.350000             0.952628             0.095933
C            -0.700000            -3.637307             0.047730
C             0.700000            -3.637307             0.050647
C             1.400000            -4.849742             0.058120
C             2.800000            -4.849742             0.075707
C             3.500000            -6.062178             0.078268
C             4.900000            -6.062178             0.022379
C             5.600000            -7.274613             0.015750
C             7.000000            -7.274613             0.058625
H             7.550000            -8.227241             0.051904
C            -4.900000            -1.212436             0.084770
C            -5.600000            -2.424871             0.055796
C            -4.900000            -3.637307             0.025648
C            -3.500000            -3.637307             0.052378
H            -5.450000            -0.259808             0.025461
C            -2.800000            -4.849742             0.014056
C            -1.400000            -4.849742             0.002992
C            -0.700000            -6.062178             0.069138
C             0.700000            -6.062178             0.057254
C             1.400000            -7.274613             0.052958
C             2.800000            -7.274613             0.019446
C             3.500000            -8.487049             0.045317
C             4.900000            -8.487049             0.020943
H             5.450000            -9.439677             0.047730
C            -7.000000            -2.424871             0.072453
C            -7.700000            -3.637307             0.003887
C            -7.000000            -4.849742             0.062843
C            -5.600000            -4.849742             0.078872
H            -7.550000            -1.472243             0.096775
H            -8.800000            -3.637307             0.001302
H            -7.550000            -5.802370             0.090596
C            -4.900000            -6.062178             0.092432
C            -3.500000            -6.062178             0.024927
H            -5.450000            -7.014806             0.096639
C            -2.800000            -7.274613             0.051873
C            -1.400000            -7.274613             0.024084
H            -3.350000            -8.227241             0.022293
C            -0.700000            -8.487049             0.045316
C             0.700000            -8.487049             0.097030
H            -1.250000            -9.439677             0.012957
C             1.400000            -9.699485             0.016116
C             2.800000            -9.699485             0.000871
H             0.850000           -10.652112             0.066305
H             3.350000           -10.652112             0.014672
