78
isomero_12_19
C             0.700000             1.212436             0.039785
C            -0.700000             1.212436             0.087088
C            -1.400000             0.000000             0.010584
C            -0.700000            -1.212436             0.066108
C             0.700000            -1.212436             0.048447
C             1.400000            -0.000000             0.010724
H             1.250000             2.165064             0.066086
H            -1.250000             2.165064             0.006862
C             2.800000             0.000000             0.071860
C             1.400000            -2.424871             0.054924
C             2.800000            -2.424871             0.098425
C             3.500000            -1.212436             0.005964
H             3.350000             0.952628             0.046696
C             4.900000            -1.212436             0.004342
C             3.500000            -3.637307             0.096670
C             4.900000            -3.637307             0.043413
C             5.600000            -2.424871             0.010643
H             5.450000            -0.259808             0.058065
C             7.000000            -2.424871             0.005626
C             5.600000            -4.849742             0.089072
C             7.000000            -4.849742             0.027466
C             7.700000            -3.637307             0.047294
H             7.550000            -1.472243             0.071630
C             9.100000            -3.637307             0.054941
C             7.700000            -6.062178             0.020306
C             9.100000            -6.062178             0.049183
C             9.800000            -4.849742             0.066422
H             9.650000            -2.684679             0.011688
H             9.650000            -7.014806             0.022061
H            10.900000            -4.849742             0.043881
C            -2.800000             0.000000             0.069068
C            -3.500000            -1.212436             0.045346
C            -2.800000            -2.424871             0.093252
C            -1.400000            -2.424871             0.077293
H            -3.350000             0.952628             0.001021
C            -0.700000            -3.637307             0.092649
C             0.700000            -3.637307             0.010304
C             1.400000            -4.849742             0.040915
C             2.800000            -4.849742             0.006741
C             3.500000            -6.062178             0.072659
C             4.900000            -6.062178             0.094462
C             5.600000            -7.274613             0.067122
C             7.000000            -7.274613             0.046286
H             7.550000            -8.227241             0.015463
B            -4.900000            -1.212436             0.007751
N            -5.600000            -2.424871             0.045743
C            -4.900000            -3.637307             0.039990
C            -3.500000            -3.637307             0.089420
H            -5.450000            -0.259808             0.054070
C            -2.800000            -4.849742             0.025707
C            -1.400000            -4.849742             0.049972
C            -0.700000            -6.062178             0.022949
C             0.700000            -6.062178             0.016690
C             1.400000            -7.274613             0.031751
C             2.800000            -7.274613             0.060347
C             3.500000            -8.487049             0.047179
C             4.900000            -8.487049             0.077589
H             5.450000            -9.439677             0.082113
C            -7.000000            -2.424871             0.028115
C            -7.700000            -3.637307             0.065749
C            -7.000000            -4.849742             0.012204
C            -5.600000            -4.849742             0.075727
H            -7.550000            -1.472243             0.002202
H            -8.800000            -3.637307             0.046185
H            -7.550000            -5.802370             0.024850
C            -4.900000            -6.062178             0.072215
C            -3.500000            -6.062178             0.085129
H            -5.450000            -7.014806             0.006331
C            -2.800000            -7.274613             0.066771
C            -1.400000            -7.274613             0.067621
H            -3.350000            -8.227241             0.003711
C            -0.700000            -8.487049             0.045635
C             0.700000            -8.487049             0.012132
H            -1.250000            -9.439677             0.044967
C             1.400000            -9.699485             0.090253
C             2.800000            -9.699485             0.001666
H             0.850000           -10.652112             0.091160
H             3.350000           -10.652112             0.030863
