78
isomero_13_14
C             0.700000             1.212436             0.085096
C            -0.700000             1.212436             0.006733
C            -1.400000             0.000000             0.024430
C            -0.700000            -1.212436             0.034614
C             0.700000            -1.212436             0.044586
C             1.400000            -0.000000             0.012633
H             1.250000             2.165064             0.052317
H            -1.250000             2.165064             0.084423
C             2.800000             0.000000             0.067142
C             1.400000            -2.424871             0.092829
C             2.800000            -2.424871             0.044663
C             3.500000            -1.212436             0.018843
H             3.350000             0.952628             0.040894
C             4.900000            -1.212436             0.010971
C             3.500000            -3.637307             0.013712
C             4.900000            -3.637307             0.011319
N             5.600000            -2.424871             0.079616
H             5.450000            -0.259808             0.092199
B             7.000000            -2.424871             0.043997
C             5.600000            -4.849742             0.035343
C             7.000000            -4.849742             0.075145
C             7.700000            -3.637307             0.048142
H             7.550000            -1.472243             0.056686
C             9.100000            -3.637307             0.018674
C             7.700000            -6.062178             0.040604
C             9.100000            -6.062178             0.037125
C             9.800000            -4.849742             0.009876
H             9.650000            -2.684679             0.092909
H             9.650000            -7.014806             0.075282
H            10.900000            -4.849742             0.009018
C            -2.800000             0.000000             0.034514
C            -3.500000            -1.212436             0.026427
C            -2.800000            -2.424871             0.047970
C            -1.400000            -2.424871             0.049369
H            -3.350000             0.952628             0.092076
C            -0.700000            -3.637307             0.016469
C             0.700000            -3.637307             0.083892
C             1.400000            -4.849742             0.076671
C             2.800000            -4.849742             0.053831
C             3.500000            -6.062178             0.014409
C             4.900000            -6.062178             0.060129
C             5.600000            -7.274613             0.090076
C             7.000000            -7.274613             0.023221
H             7.550000            -8.227241             0.060294
C            -4.900000            -1.212436             0.069261
C            -5.600000            -2.424871             0.003229
C            -4.900000            -3.637307             0.032316
C            -3.500000            -3.637307             0.059588
H            -5.450000            -0.259808             0.055652
C            -2.800000            -4.849742             0.025960
C            -1.400000            -4.849742             0.024414
C            -0.700000            -6.062178             0.033120
C             0.700000            -6.062178             0.088346
C             1.400000            -7.274613             0.046079
C             2.800000            -7.274613             0.004812
C             3.500000            -8.487049             0.062647
C             4.900000            -8.487049             0.093575
H             5.450000            -9.439677             0.063252
C            -7.000000            -2.424871             0.071382
C            -7.700000            -3.637307             0.003549
C            -7.000000            -4.849742             0.045813
C            -5.600000            -4.849742             0.028918
H            -7.550000            -1.472243             0.096526
H            -8.800000            -3.637307             0.041832
H            -7.550000            -5.802370             0.004624
C            -4.900000            -6.062178             0.061954
C            -3.500000            -6.062178             0.046311
H            -5.450000            -7.014806             0.022643
C            -2.800000            -7.274613             0.095461
C            -1.400000            -7.274613             0.060510
H            -3.350000            -8.227241             0.082542
C            -0.700000            -8.487049             0.015035
C             0.700000            -8.487049             0.059448
H            -1.250000            -9.439677             0.075607
C             1.400000            -9.699485             0.012325
C             2.800000            -9.699485             0.098802
H             0.850000           -10.652112             0.006855
H             3.350000           -10.652112             0.019899
