78
isomero_27_18
C             0.700000             1.212436             0.041383
C            -0.700000             1.212436             0.038276
C            -1.400000             0.000000             0.030459
C            -0.700000            -1.212436             0.097060
C             0.700000            -1.212436             0.083268
C             1.400000            -0.000000             0.076673
H             1.250000             2.165064             0.017336
H            -1.250000             2.165064             0.001687
C             2.800000             0.000000             0.017346
C             1.400000            -2.424871             0.043740
C             2.800000            -2.424871             0.013238
C             3.500000            -1.212436             0.079541
H             3.350000             0.952628             0.072488
C             4.900000            -1.212436             0.008874
C             3.500000            -3.637307             0.007257
C             4.900000            -3.637307             0.002010
C             5.600000            -2.424871             0.046190
H             5.450000            -0.259808             0.012596
C             7.000000            -2.424871             0.075023
C             5.600000            -4.849742             0.064425
C             7.000000            -4.849742             0.080914
C             7.700000            -3.637307             0.049512
H             7.550000            -1.472243             0.098213
C             9.100000            -3.637307             0.039272
C             7.700000            -6.062178             0.049882
C             9.100000            -6.062178             0.036991
C             9.800000            -4.849742             0.025400
H             9.650000            -2.684679             0.031026
H             9.650000            -7.014806             0.080800
H            10.900000            -4.849742             0.032544
C            -2.800000             0.000000             0.049166
C            -3.500000            -1.212436             0.096624
N            -2.800000            -2.424871             0.000762
C            -1.400000            -2.424871             0.025714
H            -3.350000             0.952628             0.090609
C            -0.700000            -3.637307             0.043283
C             0.700000            -3.637307             0.052896
C             1.400000            -4.849742             0.024038
C             2.800000            -4.849742             0.053544
C             3.500000            -6.062178             0.043073
C             4.900000            -6.062178             0.066506
C             5.600000            -7.274613             0.064288
C             7.000000            -7.274613             0.057043
H             7.550000            -8.227241             0.071045
C            -4.900000            -1.212436             0.017559
C            -5.600000            -2.424871             0.004837
C            -4.900000            -3.637307             0.099343
B            -3.500000            -3.637307             0.087250
H            -5.450000            -0.259808             0.074973
C            -2.800000            -4.849742             0.081582
C            -1.400000            -4.849742             0.084304
C            -0.700000            -6.062178             0.088541
C             0.700000            -6.062178             0.068442
C             1.400000            -7.274613             0.040406
C             2.800000            -7.274613             0.096057
C             3.500000            -8.487049             0.079709
C             4.900000            -8.487049             0.068100
H             5.450000            -9.439677             0.092688
C            -7.000000            -2.424871             0.042823
C            -7.700000            -3.637307             0.049340
C            -7.000000            -4.849742             0.045229
C            -5.600000            -4.849742             0.001121
H            -7.550000            -1.472243             0.094198
H            -8.800000            -3.637307             0.078271
H            -7.550000            -5.802370             0.096155
C            -4.900000            -6.062178             0.051690
C            -3.500000            -6.062178             0.085681
H            -5.450000            -7.014806             0.064331
C            -2.800000            -7.274613             0.015943
C            -1.400000            -7.274613             0.056346
H            -3.350000            -8.227241             0.094551
C            -0.700000            -8.487049             0.098526
C             0.700000            -8.487049             0.040847
H            -1.250000            -9.439677             0.094996
C             1.400000            -9.699485             0.059618
C             2.800000            -9.699485             0.034294
H             0.850000           -10.652112             0.097314
H             3.350000           -10.652112             0.045191
