78
isomero_5_2
C             0.700000             1.212436             0.016679
N            -0.700000             1.212436             0.066433
B            -1.400000             0.000000             0.033499
C            -0.700000            -1.212436             0.051324
C             0.700000            -1.212436             0.046094
C             1.400000            -0.000000             0.066101
H             1.250000             2.165064             0.012672
H            -1.250000             2.165064             0.054369
C             2.800000             0.000000             0.013242
C             1.400000            -2.424871             0.041849
C             2.800000            -2.424871             0.062926
C             3.500000            -1.212436             0.051081
H             3.350000             0.952628             0.093478
C             4.900000            -1.212436             0.061251
C             3.500000            -3.637307             0.099531
C             4.900000            -3.637307             0.096035
C             5.600000            -2.424871             0.062841
H             5.450000            -0.259808             0.024492
C             7.000000            -2.424871             0.043218
C             5.600000            -4.849742             0.041825
C             7.000000            -4.849742             0.090766
C             7.700000            -3.637307             0.012686
H             7.550000            -1.472243             0.098452
C             9.100000            -3.637307             0.022421
C             7.700000            -6.062178             0.072331
C             9.100000            -6.062178             0.085714
C             9.800000            -4.849742             0.029079
H             9.650000            -2.684679             0.096003
H             9.650000            -7.014806             0.038980
H            10.900000            -4.849742             0.061176
C            -2.800000             0.000000             0.077936
C            -3.500000            -1.212436             0.030999
C            -2.800000            -2.424871             0.097191
C            -1.400000            -2.424871             0.081343
H            -3.350000             0.952628             0.095094
C            -0.700000            -3.637307             0.042228
C             0.700000            -3.637307             0.037010
C             1.400000            -4.849742             0.065347
C             2.800000            -4.849742             0.088168
C             3.500000            -6.062178             0.081539
C             4.900000            -6.062178             0.059830
C             5.600000            -7.274613             0.050118
C             7.000000            -7.274613             0.041719
H             7.550000            -8.227241             0.048982
C            -4.900000            -1.212436             0.092158
C            -5.600000            -2.424871             0.053100
C            -4.900000            -3.637307             0.078697
C            -3.500000            -3.637307             0.009360
H            -5.450000            -0.259808             0.010069
C            -2.800000            -4.849742             0.027104
C            -1.400000            -4.849742             0.094743
C            -0.700000            -6.062178             0.097554
C             0.700000            -6.062178             0.072193
C             1.400000            -7.274613             0.066684
C             2.800000            -7.274613             0.086503
C             3.500000            -8.487049             0.043314
C             4.900000            -8.487049             0.026045
H             5.450000            -9.439677             0.042675
C            -7.000000            -2.424871             0.085333
C            -7.700000            -3.637307             0.080034
C            -7.000000            -4.849742             0.089214
C            -5.600000            -4.849742             0.013781
H            -7.550000            -1.472243             0.077417
H            -8.800000            -3.637307             0.030601
H            -7.550000            -5.802370             0.020056
C            -4.900000            -6.062178             0.042030
C            -3.500000            -6.062178             0.004985
H            -5.450000            -7.014806             0.028418
C            -2.800000            -7.274613             0.008963
C            -1.400000            -7.274613             0.004148
H            -3.350000            -8.227241             0.030710
C            -0.700000            -8.487049             0.083045
C             0.700000            -8.487049             0.001089
H            -1.250000            -9.439677             0.085267
C             1.400000            -9.699485             0.034092
C             2.800000            -9.699485             0.035986
H             0.850000           -10.652112             0.039481
H             3.350000           -10.652112             0.067049
