78
isomero_23_24
C             0.700000             1.212436             0.070632
C            -0.700000             1.212436             0.098599
C            -1.400000             0.000000             0.039320
C            -0.700000            -1.212436             0.056261
C             0.700000            -1.212436             0.028973
C             1.400000            -0.000000             0.023992
H             1.250000             2.165064             0.071553
H            -1.250000             2.165064             0.051707
C             2.800000             0.000000             0.002560
C             1.400000            -2.424871             0.090575
C             2.800000            -2.424871             0.021998
C             3.500000            -1.212436             0.026817
H             3.350000             0.952628             0.080545
C             4.900000            -1.212436             0.006376
N             3.500000            -3.637307             0.019512
B             4.900000            -3.637307             0.043013
C             5.600000            -2.424871             0.002598
H             5.450000            -0.259808             0.064110
C             7.000000            -2.424871             0.002547
C             5.600000            -4.849742             0.057006
C             7.000000            -4.849742             0.032728
C             7.700000            -3.637307             0.098320
H             7.550000            -1.472243             0.068926
C             9.100000            -3.637307             0.022566
C             7.700000            -6.062178             0.032177
C             9.100000            -6.062178             0.035905
C             9.800000            -4.849742             0.082885
H             9.650000            -2.684679             0.030076
H             9.650000            -7.014806             0.059647
H            10.900000            -4.849742             0.051735
C            -2.800000             0.000000             0.053772
C            -3.500000            -1.212436             0.036313
C            -2.800000            -2.424871             0.050851
C            -1.400000            -2.424871             0.051625
H            -3.350000             0.952628             0.069054
C            -0.700000            -3.637307             0.098780
C             0.700000            -3.637307             0.073453
C             1.400000            -4.849742             0.070797
C             2.800000            -4.849742             0.062589
C             3.500000            -6.062178             0.044478
C             4.900000            -6.062178             0.042783
C             5.600000            -7.274613             0.048800
C             7.000000            -7.274613             0.044738
H             7.550000            -8.227241             0.061942
C            -4.900000            -1.212436             0.086368
C            -5.600000            -2.424871             0.066322
C            -4.900000            -3.637307             0.066411
C            -3.500000            -3.637307             0.062884
H            -5.450000            -0.259808             0.008560
C            -2.800000            -4.849742             0.049457
C            -1.400000            -4.849742             0.039997
C            -0.700000            -6.062178             0.026535
C             0.700000            -6.062178             0.090517
C             1.400000            -7.274613             0.080124
C             2.800000            -7.274613             0.013154
C             3.500000            -8.487049             0.017976
C             4.900000            -8.487049             0.000301
H             5.450000            -9.439677             0.094703
C            -7.000000            -2.424871             0.013334
C            -7.700000            -3.637307             0.057777
C            -7.000000            -4.849742             0.060455
C            -5.600000            -4.849742             0.078676
H            -7.550000            -1.472243             0.086314
H            -8.800000            -3.637307             0.053738
H            -7.550000            -5.802370             0.060048
C            -4.900000            -6.062178             0.013438
C            -3.500000            -6.062178             0.014549
H            -5.450000            -7.014806             0.047026
C            -2.800000            -7.274613             0.072568
C            -1.400000            -7.274613             0.074333
H            -3.350000            -8.227241             0.034676
C            -0.700000            -8.487049             0.005825
C             0.700000            -8.487049             0.041666
H            -1.250000            -9.439677             0.047384
C             1.400000            -9.699485             0.005684
C             2.800000            -9.699485             0.062800
H             0.850000           -10.652112             0.037839
H             3.350000           -10.652112             0.033053
