78
isomero_16_25
C             0.700000             1.212436             0.032309
C            -0.700000             1.212436             0.087331
C            -1.400000             0.000000             0.075705
C            -0.700000            -1.212436             0.075206
C             0.700000            -1.212436             0.054062
C             1.400000            -0.000000             0.053911
H             1.250000             2.165064             0.007832
H            -1.250000             2.165064             0.034527
C             2.800000             0.000000             0.069364
B             1.400000            -2.424871             0.027469
C             2.800000            -2.424871             0.014338
C             3.500000            -1.212436             0.061610
H             3.350000             0.952628             0.054772
C             4.900000            -1.212436             0.009837
C             3.500000            -3.637307             0.068929
C             4.900000            -3.637307             0.031116
C             5.600000            -2.424871             0.091485
H             5.450000            -0.259808             0.077951
C             7.000000            -2.424871             0.053781
C             5.600000            -4.849742             0.040224
C             7.000000            -4.849742             0.080540
C             7.700000            -3.637307             0.016880
H             7.550000            -1.472243             0.074251
C             9.100000            -3.637307             0.028558
C             7.700000            -6.062178             0.024407
C             9.100000            -6.062178             0.026248
C             9.800000            -4.849742             0.036623
H             9.650000            -2.684679             0.089909
H             9.650000            -7.014806             0.084897
H            10.900000            -4.849742             0.051174
C            -2.800000             0.000000             0.010667
C            -3.500000            -1.212436             0.059755
C            -2.800000            -2.424871             0.056105
C            -1.400000            -2.424871             0.000857
H            -3.350000             0.952628             0.051791
C            -0.700000            -3.637307             0.026540
N             0.700000            -3.637307             0.046804
C             1.400000            -4.849742             0.021932
C             2.800000            -4.849742             0.089713
C             3.500000            -6.062178             0.019923
C             4.900000            -6.062178             0.066039
C             5.600000            -7.274613             0.021810
C             7.000000            -7.274613             0.065999
H             7.550000            -8.227241             0.027531
C            -4.900000            -1.212436             0.042999
C            -5.600000            -2.424871             0.098595
C            -4.900000            -3.637307             0.009825
C            -3.500000            -3.637307             0.077017
H            -5.450000            -0.259808             0.097009
C            -2.800000            -4.849742             0.011697
C            -1.400000            -4.849742             0.069250
C            -0.700000            -6.062178             0.062884
C             0.700000            -6.062178             0.033122
C             1.400000            -7.274613             0.063710
C             2.800000            -7.274613             0.062892
C             3.500000            -8.487049             0.023542
C             4.900000            -8.487049             0.067265
H             5.450000            -9.439677             0.027729
C            -7.000000            -2.424871             0.092807
C            -7.700000            -3.637307             0.070954
C            -7.000000            -4.849742             0.047519
C            -5.600000            -4.849742             0.041115
H            -7.550000            -1.472243             0.076472
H            -8.800000            -3.637307             0.030278
H            -7.550000            -5.802370             0.094484
C            -4.900000            -6.062178             0.049129
C            -3.500000            -6.062178             0.067966
H            -5.450000            -7.014806             0.032318
C            -2.800000            -7.274613             0.038505
C            -1.400000            -7.274613             0.052481
H            -3.350000            -8.227241             0.015292
C            -0.700000            -8.487049             0.051763
C             0.700000            -8.487049             0.043796
H            -1.250000            -9.439677             0.074673
C             1.400000            -9.699485             0.095986
C             2.800000            -9.699485             0.044182
H             0.850000           -10.652112             0.096940
H             3.350000           -10.652112             0.050014
