78
isomero_10_9
C             0.700000             1.212436             0.083093
C            -0.700000             1.212436             0.002494
C            -1.400000             0.000000             0.066733
B            -0.700000            -1.212436             0.072774
N             0.700000            -1.212436             0.005753
C             1.400000            -0.000000             0.060715
H             1.250000             2.165064             0.000884
H            -1.250000             2.165064             0.065108
C             2.800000             0.000000             0.044143
C             1.400000            -2.424871             0.061048
C             2.800000            -2.424871             0.015296
C             3.500000            -1.212436             0.014585
H             3.350000             0.952628             0.097587
C             4.900000            -1.212436             0.072981
C             3.500000            -3.637307             0.002061
C             4.900000            -3.637307             0.032221
C             5.600000            -2.424871             0.036983
H             5.450000            -0.259808             0.020303
C             7.000000            -2.424871             0.049167
C             5.600000            -4.849742             0.015089
C             7.000000            -4.849742             0.084443
C             7.700000            -3.637307             0.052984
H             7.550000            -1.472243             0.059715
C             9.100000            -3.637307             0.031358
C             7.700000            -6.062178             0.034264
C             9.100000            -6.062178             0.045908
C             9.800000            -4.849742             0.006617
H             9.650000            -2.684679             0.029478
H             9.650000            -7.014806             0.068927
H            10.900000            -4.849742             0.014616
C            -2.800000             0.000000             0.097860
C            -3.500000            -1.212436             0.099019
C            -2.800000            -2.424871             0.014638
C            -1.400000            -2.424871             0.042197
H            -3.350000             0.952628             0.069134
C            -0.700000            -3.637307             0.060228
C             0.700000            -3.637307             0.090566
C             1.400000            -4.849742             0.016427
C             2.800000            -4.849742             0.034583
C             3.500000            -6.062178             0.047493
C             4.900000            -6.062178             0.034874
C             5.600000            -7.274613             0.057706
C             7.000000            -7.274613             0.056085
H             7.550000            -8.227241             0.096141
C            -4.900000            -1.212436             0.048425
C            -5.600000            -2.424871             0.047472
C            -4.900000            -3.637307             0.055888
C            -3.500000            -3.637307             0.069939
H            -5.450000            -0.259808             0.090007
C            -2.800000            -4.849742             0.028225
C            -1.400000            -4.849742             0.070297
C            -0.700000            -6.062178             0.062267
C             0.700000            -6.062178             0.028673
C             1.400000            -7.274613             0.090854
C             2.800000            -7.274613             0.078493
C             3.500000            -8.487049             0.093651
C             4.900000            -8.487049             0.089175
H             5.450000            -9.439677             0.033592
C            -7.000000            -2.424871             0.061910
C            -7.700000            -3.637307             0.046553
C            -7.000000            -4.849742             0.012134
C            -5.600000            -4.849742             0.093618
H            -7.550000            -1.472243             0.052867
H            -8.800000            -3.637307             0.091212
H            -7.550000            -5.802370             0.023837
C            -4.900000            -6.062178             0.032302
C            -3.500000            -6.062178             0.064209
H            -5.450000            -7.014806             0.039003
C            -2.800000            -7.274613             0.005277
C            -1.400000            -7.274613             0.078891
H            -3.350000            -8.227241             0.066778
C            -0.700000            -8.487049             0.061717
C             0.700000            -8.487049             0.008143
H            -1.250000            -9.439677             0.026684
C             1.400000            -9.699485             0.060149
C             2.800000            -9.699485             0.095410
H             0.850000           -10.652112             0.023493
H             3.350000           -10.652112             0.017779
