78
isomero_25_26
C             0.700000             1.212436             0.059674
C            -0.700000             1.212436             0.013187
C            -1.400000             0.000000             0.093719
C            -0.700000            -1.212436             0.031048
C             0.700000            -1.212436             0.083126
C             1.400000            -0.000000             0.003337
H             1.250000             2.165064             0.085976
H            -1.250000             2.165064             0.090511
C             2.800000             0.000000             0.018913
C             1.400000            -2.424871             0.051477
C             2.800000            -2.424871             0.026958
C             3.500000            -1.212436             0.014494
H             3.350000             0.952628             0.029888
C             4.900000            -1.212436             0.085772
C             3.500000            -3.637307             0.085766
C             4.900000            -3.637307             0.013920
C             5.600000            -2.424871             0.029362
H             5.450000            -0.259808             0.086973
C             7.000000            -2.424871             0.053766
C             5.600000            -4.849742             0.019649
C             7.000000            -4.849742             0.084366
C             7.700000            -3.637307             0.032162
H             7.550000            -1.472243             0.088508
C             9.100000            -3.637307             0.054274
C             7.700000            -6.062178             0.047276
C             9.100000            -6.062178             0.008415
C             9.800000            -4.849742             0.010476
H             9.650000            -2.684679             0.084272
H             9.650000            -7.014806             0.088706
H            10.900000            -4.849742             0.048621
C            -2.800000             0.000000             0.048422
C            -3.500000            -1.212436             0.005726
C            -2.800000            -2.424871             0.006081
C            -1.400000            -2.424871             0.019306
H            -3.350000             0.952628             0.035615
N            -0.700000            -3.637307             0.093373
B             0.700000            -3.637307             0.057827
C             1.400000            -4.849742             0.005573
C             2.800000            -4.849742             0.025291
C             3.500000            -6.062178             0.075751
C             4.900000            -6.062178             0.024584
C             5.600000            -7.274613             0.098662
C             7.000000            -7.274613             0.035474
H             7.550000            -8.227241             0.091875
C            -4.900000            -1.212436             0.095985
C            -5.600000            -2.424871             0.095170
C            -4.900000            -3.637307             0.060374
C            -3.500000            -3.637307             0.024279
H            -5.450000            -0.259808             0.018389
C            -2.800000            -4.849742             0.015923
C            -1.400000            -4.849742             0.074542
C            -0.700000            -6.062178             0.041104
C             0.700000            -6.062178             0.022307
C             1.400000            -7.274613             0.069259
C             2.800000            -7.274613             0.044862
C             3.500000            -8.487049             0.064418
C             4.900000            -8.487049             0.081741
H             5.450000            -9.439677             0.089664
C            -7.000000            -2.424871             0.088614
C            -7.700000            -3.637307             0.032405
C            -7.000000            -4.849742             0.020292
C            -5.600000            -4.849742             0.005426
H            -7.550000            -1.472243             0.085538
H            -8.800000            -3.637307             0.082124
H            -7.550000            -5.802370             0.011320
C            -4.900000            -6.062178             0.096388
C            -3.500000            -6.062178             0.080198
H            -5.450000            -7.014806             0.007890
C            -2.800000            -7.274613             0.070173
C            -1.400000            -7.274613             0.080012
H            -3.350000            -8.227241             0.031308
C            -0.700000            -8.487049             0.062602
C             0.700000            -8.487049             0.011629
H            -1.250000            -9.439677             0.008240
C             1.400000            -9.699485             0.020985
C             2.800000            -9.699485             0.015386
H             0.850000           -10.652112             0.087839
H             3.350000           -10.652112             0.039451
