78
isomero_3_4
C             0.700000             1.212436             0.039076
C            -0.700000             1.212436             0.046086
C            -1.400000             0.000000             0.084193
C            -0.700000            -1.212436             0.010550
C             0.700000            -1.212436             0.058381
N             1.400000            -0.000000             0.041764
H             1.250000             2.165064             0.028588
H            -1.250000             2.165064             0.085288
B             2.800000             0.000000             0.032296
C             1.400000            -2.424871             0.004734
C             2.800000            -2.424871             0.073675
C             3.500000            -1.212436             0.002606
H             3.350000             0.952628             0.000598
C             4.900000            -1.212436             0.042560
C             3.500000            -3.637307             0.011431
C             4.900000            -3.637307             0.011073
C             5.600000            -2.424871             0.060038
H             5.450000            -0.259808             0.037117
C             7.000000            -2.424871             0.019776
C             5.600000            -4.849742             0.054438
C             7.000000            -4.849742             0.040560
C             7.700000            -3.637307             0.088659
H             7.550000            -1.472243             0.032527
C             9.100000            -3.637307             0.037013
C             7.700000            -6.062178             0.044072
C             9.100000            -6.062178             0.011084
C             9.800000            -4.849742             0.053054
H             9.650000            -2.684679             0.013922
H             9.650000            -7.014806             0.064837
H            10.900000            -4.849742             0.095760
C            -2.800000             0.000000             0.066425
C            -3.500000            -1.212436             0.079580
C            -2.800000            -2.424871             0.042383
C            -1.400000            -2.424871             0.014659
H            -3.350000             0.952628             0.048306
C            -0.700000            -3.637307             0.082986
C             0.700000            -3.637307             0.030703
C             1.400000            -4.849742             0.090024
C             2.800000            -4.849742             0.053633
C             3.500000            -6.062178             0.006675
C             4.900000            -6.062178             0.017380
C             5.600000            -7.274613             0.006738
C             7.000000            -7.274613             0.082182
H             7.550000            -8.227241             0.028162
C            -4.900000            -1.212436             0.080298
C            -5.600000            -2.424871             0.012543
C            -4.900000            -3.637307             0.038086
C            -3.500000            -3.637307             0.020724
H            -5.450000            -0.259808             0.018394
C            -2.800000            -4.849742             0.073456
C            -1.400000            -4.849742             0.075899
C            -0.700000            -6.062178             0.097667
C             0.700000            -6.062178             0.068282
C             1.400000            -7.274613             0.082262
C             2.800000            -7.274613             0.016115
C             3.500000            -8.487049             0.007240
C             4.900000            -8.487049             0.047776
H             5.450000            -9.439677             0.036494
C            -7.000000            -2.424871             0.065260
C            -7.700000            -3.637307             0.078138
C            -7.000000            -4.849742             0.062347
C            -5.600000            -4.849742             0.004276
H            -7.550000            -1.472243             0.055382
H            -8.800000            -3.637307             0.082451
H            -7.550000            -5.802370             0.052451
C            -4.900000            -6.062178             0.097454
C            -3.500000            -6.062178             0.053174
H            -5.450000            -7.014806             0.094174
C            -2.800000            -7.274613             0.077115
C            -1.400000            -7.274613             0.098844
H            -3.350000            -8.227241             0.054218
C            -0.700000            -8.487049             0.069450
C             0.700000            -8.487049             0.047198
H            -1.250000            -9.439677             0.025475
C             1.400000            -9.699485             0.017543
C             2.800000            -9.699485             0.088876
H             0.850000           -10.652112             0.070466
H             3.350000           -10.652112             0.008800
