78
isomero_9_10
C             0.700000             1.212436             0.021304
C            -0.700000             1.212436             0.002668
C            -1.400000             0.000000             0.033692
N            -0.700000            -1.212436             0.067633
B             0.700000            -1.212436             0.095531
C             1.400000            -0.000000             0.005002
H             1.250000             2.165064             0.071166
H            -1.250000             2.165064             0.023165
C             2.800000             0.000000             0.016001
C             1.400000            -2.424871             0.074378
C             2.800000            -2.424871             0.097101
C             3.500000            -1.212436             0.037025
H             3.350000             0.952628             0.065521
C             4.900000            -1.212436             0.068156
C             3.500000            -3.637307             0.012667
C             4.900000            -3.637307             0.096753
C             5.600000            -2.424871             0.024246
H             5.450000            -0.259808             0.053276
C             7.000000            -2.424871             0.083144
C             5.600000            -4.849742             0.068230
C             7.000000            -4.849742             0.051714
C             7.700000            -3.637307             0.040977
H             7.550000            -1.472243             0.014510
C             9.100000            -3.637307             0.024545
C             7.700000            -6.062178             0.069887
C             9.100000            -6.062178             0.041834
C             9.800000            -4.849742             0.015232
H             9.650000            -2.684679             0.081338
H             9.650000            -7.014806             0.009607
H            10.900000            -4.849742             0.087328
C            -2.800000             0.000000             0.051547
C            -3.500000            -1.212436             0.016371
C            -2.800000            -2.424871             0.074584
C            -1.400000            -2.424871             0.043024
H            -3.350000             0.952628             0.015769
C            -0.700000            -3.637307             0.008501
C             0.700000            -3.637307             0.086395
C             1.400000            -4.849742             0.077714
C             2.800000            -4.849742             0.026702
C             3.500000            -6.062178             0.028465
C             4.900000            -6.062178             0.060699
C             5.600000            -7.274613             0.004732
C             7.000000            -7.274613             0.083555
H             7.550000            -8.227241             0.096881
C            -4.900000            -1.212436             0.075010
C            -5.600000            -2.424871             0.092423
C            -4.900000            -3.637307             0.010700
C            -3.500000            -3.637307             0.090917
H            -5.450000            -0.259808             0.081958
C            -2.800000            -4.849742             0.064361
C            -1.400000            -4.849742             0.099884
C            -0.700000            -6.062178             0.021479
C             0.700000            -6.062178             0.099074
C             1.400000            -7.274613             0.002253
C             2.800000            -7.274613             0.039522
C             3.500000            -8.487049             0.056303
C             4.900000            -8.487049             0.056388
H             5.450000            -9.439677             0.046944
C            -7.000000            -2.424871             0.044356
C            -7.700000            -3.637307             0.020157
C            -7.000000            -4.849742             0.019618
C            -5.600000            -4.849742             0.085223
H            -7.550000            -1.472243             0.069114
H            -8.800000            -3.637307             0.037886
H            -7.550000            -5.802370             0.019025
C            -4.900000            -6.062178             0.025562
C            -3.500000            -6.062178             0.029693
H            -5.450000            -7.014806             0.089581
C            -2.800000            -7.274613             0.099096
C            -1.400000            -7.274613             0.008399
H            -3.350000            -8.227241             0.034704
C            -0.700000            -8.487049             0.008849
C             0.700000            -8.487049             0.063064
H            -1.250000            -9.439677             0.025184
C             1.400000            -9.699485             0.042590
C             2.800000            -9.699485             0.050912
H             0.850000           -10.652112             0.027846
H             3.350000           -10.652112             0.053828
