78
isomero_22_31
C             0.700000             1.212436             0.053202
C            -0.700000             1.212436             0.002624
C            -1.400000             0.000000             0.062586
C            -0.700000            -1.212436             0.065228
C             0.700000            -1.212436             0.059629
C             1.400000            -0.000000             0.050671
H             1.250000             2.165064             0.006807
H            -1.250000             2.165064             0.014448
C             2.800000             0.000000             0.087810
C             1.400000            -2.424871             0.049475
C             2.800000            -2.424871             0.060324
C             3.500000            -1.212436             0.050515
H             3.350000             0.952628             0.032424
C             4.900000            -1.212436             0.064065
C             3.500000            -3.637307             0.003379
C             4.900000            -3.637307             0.006031
C             5.600000            -2.424871             0.089444
H             5.450000            -0.259808             0.038684
C             7.000000            -2.424871             0.013167
C             5.600000            -4.849742             0.079343
N             7.000000            -4.849742             0.080952
B             7.700000            -3.637307             0.023914
H             7.550000            -1.472243             0.047427
C             9.100000            -3.637307             0.012748
C             7.700000            -6.062178             0.001243
C             9.100000            -6.062178             0.040891
C             9.800000            -4.849742             0.021284
H             9.650000            -2.684679             0.078729
H             9.650000            -7.014806             0.000818
H            10.900000            -4.849742             0.084590
C            -2.800000             0.000000             0.082149
C            -3.500000            -1.212436             0.070428
C            -2.800000            -2.424871             0.076513
C            -1.400000            -2.424871             0.076690
H            -3.350000             0.952628             0.082063
C            -0.700000            -3.637307             0.060399
C             0.700000            -3.637307             0.008344
C             1.400000            -4.849742             0.051348
C             2.800000            -4.849742             0.053052
C             3.500000            -6.062178             0.054071
C             4.900000            -6.062178             0.037549
C             5.600000            -7.274613             0.079366
C             7.000000            -7.274613             0.034729
H             7.550000            -8.227241             0.051684
C            -4.900000            -1.212436             0.030751
C            -5.600000            -2.424871             0.099912
C            -4.900000            -3.637307             0.054476
C            -3.500000            -3.637307             0.050330
H            -5.450000            -0.259808             0.006762
C            -2.800000            -4.849742             0.043701
C            -1.400000            -4.849742             0.017304
C            -0.700000            -6.062178             0.004462
C             0.700000            -6.062178             0.018639
C             1.400000            -7.274613             0.039610
C             2.800000            -7.274613             0.015537
C             3.500000            -8.487049             0.067253
C             4.900000            -8.487049             0.018061
H             5.450000            -9.439677             0.087104
C            -7.000000            -2.424871             0.076790
C            -7.700000            -3.637307             0.046762
C            -7.000000            -4.849742             0.042043
C            -5.600000            -4.849742             0.091312
H            -7.550000            -1.472243             0.030390
H            -8.800000            -3.637307             0.046984
H            -7.550000            -5.802370             0.084395
C            -4.900000            -6.062178             0.018223
C            -3.500000            -6.062178             0.037924
H            -5.450000            -7.014806             0.006870
C            -2.800000            -7.274613             0.087345
C            -1.400000            -7.274613             0.009430
H            -3.350000            -8.227241             0.052104
C            -0.700000            -8.487049             0.052198
C             0.700000            -8.487049             0.053747
H            -1.250000            -9.439677             0.049911
C             1.400000            -9.699485             0.055214
C             2.800000            -9.699485             0.019274
H             0.850000           -10.652112             0.041221
H             3.350000           -10.652112             0.020667
