78
isomero_26_17
C             0.700000             1.212436             0.034315
C            -0.700000             1.212436             0.086833
C            -1.400000             0.000000             0.034195
C            -0.700000            -1.212436             0.035053
C             0.700000            -1.212436             0.022387
C             1.400000            -0.000000             0.006789
H             1.250000             2.165064             0.093750
H            -1.250000             2.165064             0.030011
C             2.800000             0.000000             0.092186
C             1.400000            -2.424871             0.022154
C             2.800000            -2.424871             0.045110
C             3.500000            -1.212436             0.022990
H             3.350000             0.952628             0.047578
C             4.900000            -1.212436             0.027140
C             3.500000            -3.637307             0.035374
C             4.900000            -3.637307             0.036365
C             5.600000            -2.424871             0.065707
H             5.450000            -0.259808             0.027965
C             7.000000            -2.424871             0.005998
C             5.600000            -4.849742             0.036899
C             7.000000            -4.849742             0.026249
C             7.700000            -3.637307             0.042057
H             7.550000            -1.472243             0.019997
C             9.100000            -3.637307             0.078183
C             7.700000            -6.062178             0.013310
C             9.100000            -6.062178             0.034220
C             9.800000            -4.849742             0.031392
H             9.650000            -2.684679             0.087890
H             9.650000            -7.014806             0.054841
H            10.900000            -4.849742             0.005667
C            -2.800000             0.000000             0.081273
C            -3.500000            -1.212436             0.065900
C            -2.800000            -2.424871             0.011719
N            -1.400000            -2.424871             0.027945
H            -3.350000             0.952628             0.053071
B            -0.700000            -3.637307             0.073227
C             0.700000            -3.637307             0.082636
C             1.400000            -4.849742             0.022942
C             2.800000            -4.849742             0.092258
C             3.500000            -6.062178             0.036745
C             4.900000            -6.062178             0.003805
C             5.600000            -7.274613             0.064889
C             7.000000            -7.274613             0.081779
H             7.550000            -8.227241             0.042105
C            -4.900000            -1.212436             0.080500
C            -5.600000            -2.424871             0.020687
C            -4.900000            -3.637307             0.031117
C            -3.500000            -3.637307             0.087261
H            -5.450000            -0.259808             0.058674
C            -2.800000            -4.849742             0.075181
C            -1.400000            -4.849742             0.075501
C            -0.700000            -6.062178             0.002802
C             0.700000            -6.062178             0.064225
C             1.400000            -7.274613             0.069289
C             2.800000            -7.274613             0.023218
C             3.500000            -8.487049             0.029048
C             4.900000            -8.487049             0.020561
H             5.450000            -9.439677             0.084316
C            -7.000000            -2.424871             0.009530
C            -7.700000            -3.637307             0.019071
C            -7.000000            -4.849742             0.076308
C            -5.600000            -4.849742             0.021486
H            -7.550000            -1.472243             0.004686
H            -8.800000            -3.637307             0.017862
H            -7.550000            -5.802370             0.043714
C            -4.900000            -6.062178             0.070157
C            -3.500000            -6.062178             0.043666
H            -5.450000            -7.014806             0.033272
C            -2.800000            -7.274613             0.048596
C            -1.400000            -7.274613             0.001098
H            -3.350000            -8.227241             0.005386
C            -0.700000            -8.487049             0.035729
C             0.700000            -8.487049             0.076897
H            -1.250000            -9.439677             0.061434
C             1.400000            -9.699485             0.058393
C             2.800000            -9.699485             0.070457
H             0.850000           -10.652112             0.051018
H             3.350000           -10.652112             0.057630
