78
isomero_27_28
C             0.700000             1.212436             0.028705
C            -0.700000             1.212436             0.039339
C            -1.400000             0.000000             0.098363
C            -0.700000            -1.212436             0.012162
C             0.700000            -1.212436             0.039759
C             1.400000            -0.000000             0.071836
H             1.250000             2.165064             0.071962
H            -1.250000             2.165064             0.068282
C             2.800000             0.000000             0.051809
C             1.400000            -2.424871             0.007799
C             2.800000            -2.424871             0.057171
C             3.500000            -1.212436             0.038038
H             3.350000             0.952628             0.078833
C             4.900000            -1.212436             0.073479
C             3.500000            -3.637307             0.004306
C             4.900000            -3.637307             0.057204
C             5.600000            -2.424871             0.032397
H             5.450000            -0.259808             0.041866
C             7.000000            -2.424871             0.019203
C             5.600000            -4.849742             0.020031
C             7.000000            -4.849742             0.048254
C             7.700000            -3.637307             0.023939
H             7.550000            -1.472243             0.017014
C             9.100000            -3.637307             0.093374
C             7.700000            -6.062178             0.068096
C             9.100000            -6.062178             0.075849
C             9.800000            -4.849742             0.047600
H             9.650000            -2.684679             0.094372
H             9.650000            -7.014806             0.067303
H            10.900000            -4.849742             0.047631
C            -2.800000             0.000000             0.017816
C            -3.500000            -1.212436             0.066718
C            -2.800000            -2.424871             0.041739
C            -1.400000            -2.424871             0.013033
H            -3.350000             0.952628             0.068267
C            -0.700000            -3.637307             0.056016
C             0.700000            -3.637307             0.089664
C             1.400000            -4.849742             0.026324
C             2.800000            -4.849742             0.058164
C             3.500000            -6.062178             0.057305
C             4.900000            -6.062178             0.006702
C             5.600000            -7.274613             0.067604
C             7.000000            -7.274613             0.000741
H             7.550000            -8.227241             0.057673
C            -4.900000            -1.212436             0.076273
C            -5.600000            -2.424871             0.035162
N            -4.900000            -3.637307             0.082640
B            -3.500000            -3.637307             0.080285
H            -5.450000            -0.259808             0.010470
C            -2.800000            -4.849742             0.006406
C            -1.400000            -4.849742             0.020739
C            -0.700000            -6.062178             0.026322
C             0.700000            -6.062178             0.048836
C             1.400000            -7.274613             0.076763
C             2.800000            -7.274613             0.098983
C             3.500000            -8.487049             0.035287
C             4.900000            -8.487049             0.038205
H             5.450000            -9.439677             0.097119
C            -7.000000            -2.424871             0.046360
C            -7.700000            -3.637307             0.049703
C            -7.000000            -4.849742             0.016340
C            -5.600000            -4.849742             0.005885
H            -7.550000            -1.472243             0.049217
H            -8.800000            -3.637307             0.016484
H            -7.550000            -5.802370             0.079080
C            -4.900000            -6.062178             0.025129
C            -3.500000            -6.062178             0.018530
H            -5.450000            -7.014806             0.030704
C            -2.800000            -7.274613             0.087535
C            -1.400000            -7.274613             0.009289
H            -3.350000            -8.227241             0.063670
C            -0.700000            -8.487049             0.015946
C             0.700000            -8.487049             0.008750
H            -1.250000            -9.439677             0.076186
C             1.400000            -9.699485             0.053377
C             2.800000            -9.699485             0.070812
H             0.850000           -10.652112             0.012086
H             3.350000           -10.652112             0.037906
