78
isomero_30_39
C             0.700000             1.212436             0.074608
C            -0.700000             1.212436             0.014479
C            -1.400000             0.000000             0.079755
C            -0.700000            -1.212436             0.016374
C             0.700000            -1.212436             0.021897
C             1.400000            -0.000000             0.001923
H             1.250000             2.165064             0.075485
H            -1.250000             2.165064             0.041469
C             2.800000             0.000000             0.040136
C             1.400000            -2.424871             0.081126
C             2.800000            -2.424871             0.003491
C             3.500000            -1.212436             0.068676
H             3.350000             0.952628             0.025393
C             4.900000            -1.212436             0.031008
C             3.500000            -3.637307             0.048396
C             4.900000            -3.637307             0.082770
C             5.600000            -2.424871             0.043528
H             5.450000            -0.259808             0.031552
C             7.000000            -2.424871             0.070502
C             5.600000            -4.849742             0.053835
C             7.000000            -4.849742             0.013137
C             7.700000            -3.637307             0.076119
H             7.550000            -1.472243             0.041158
C             9.100000            -3.637307             0.075961
C             7.700000            -6.062178             0.016081
N             9.100000            -6.062178             0.066381
B             9.800000            -4.849742             0.009859
H             9.650000            -2.684679             0.077165
H             9.650000            -7.014806             0.002254
H            10.900000            -4.849742             0.028768
C            -2.800000             0.000000             0.070589
C            -3.500000            -1.212436             0.081219
C            -2.800000            -2.424871             0.072119
C            -1.400000            -2.424871             0.082492
H            -3.350000             0.952628             0.088893
C            -0.700000            -3.637307             0.034370
C             0.700000            -3.637307             0.047280
C             1.400000            -4.849742             0.067299
C             2.800000            -4.849742             0.011018
C             3.500000            -6.062178             0.013725
C             4.900000            -6.062178             0.083897
C             5.600000            -7.274613             0.039395
C             7.000000            -7.274613             0.083041
H             7.550000            -8.227241             0.002154
C            -4.900000            -1.212436             0.097457
C            -5.600000            -2.424871             0.010611
C            -4.900000            -3.637307             0.071584
C            -3.500000            -3.637307             0.095646
H            -5.450000            -0.259808             0.083600
C            -2.800000            -4.849742             0.039802
C            -1.400000            -4.849742             0.078163
C            -0.700000            -6.062178             0.047152
C             0.700000            -6.062178             0.032632
C             1.400000            -7.274613             0.023838
C             2.800000            -7.274613             0.016829
C             3.500000            -8.487049             0.014046
C             4.900000            -8.487049             0.053245
H             5.450000            -9.439677             0.000713
C            -7.000000            -2.424871             0.007177
C            -7.700000            -3.637307             0.085203
C            -7.000000            -4.849742             0.060303
C            -5.600000            -4.849742             0.039578
H            -7.550000            -1.472243             0.072707
H            -8.800000            -3.637307             0.003210
H            -7.550000            -5.802370             0.053840
C            -4.900000            -6.062178             0.053270
C            -3.500000            -6.062178             0.007501
H            -5.450000            -7.014806             0.098503
C            -2.800000            -7.274613             0.003167
C            -1.400000            -7.274613             0.067200
H            -3.350000            -8.227241             0.040860
C            -0.700000            -8.487049             0.035551
C             0.700000            -8.487049             0.025704
H            -1.250000            -9.439677             0.029365
C             1.400000            -9.699485             0.027494
C             2.800000            -9.699485             0.024773
H             0.850000           -10.652112             0.030381
H             3.350000           -10.652112             0.074399
