78
isomero_17_18
C             0.700000             1.212436             0.021281
C            -0.700000             1.212436             0.055740
C            -1.400000             0.000000             0.011734
C            -0.700000            -1.212436             0.095226
C             0.700000            -1.212436             0.076202
C             1.400000            -0.000000             0.042805
H             1.250000             2.165064             0.051530
H            -1.250000             2.165064             0.027379
C             2.800000             0.000000             0.000361
C             1.400000            -2.424871             0.081970
C             2.800000            -2.424871             0.080133
C             3.500000            -1.212436             0.072262
H             3.350000             0.952628             0.003327
C             4.900000            -1.212436             0.064509
C             3.500000            -3.637307             0.056482
C             4.900000            -3.637307             0.000443
C             5.600000            -2.424871             0.099188
H             5.450000            -0.259808             0.093366
C             7.000000            -2.424871             0.075160
C             5.600000            -4.849742             0.071228
C             7.000000            -4.849742             0.051459
C             7.700000            -3.637307             0.003486
H             7.550000            -1.472243             0.075732
C             9.100000            -3.637307             0.023556
C             7.700000            -6.062178             0.048353
C             9.100000            -6.062178             0.025857
C             9.800000            -4.849742             0.001319
H             9.650000            -2.684679             0.065305
H             9.650000            -7.014806             0.039770
H            10.900000            -4.849742             0.042169
C            -2.800000             0.000000             0.020454
C            -3.500000            -1.212436             0.079355
N            -2.800000            -2.424871             0.070941
B            -1.400000            -2.424871             0.007590
H            -3.350000             0.952628             0.087077
C            -0.700000            -3.637307             0.041715
C             0.700000            -3.637307             0.003335
C             1.400000            -4.849742             0.038867
C             2.800000            -4.849742             0.090680
C             3.500000            -6.062178             0.051955
C             4.900000            -6.062178             0.060744
C             5.600000            -7.274613             0.070994
C             7.000000            -7.274613             0.039126
H             7.550000            -8.227241             0.029274
C            -4.900000            -1.212436             0.098899
C            -5.600000            -2.424871             0.089499
C            -4.900000            -3.637307             0.011660
C            -3.500000            -3.637307             0.089229
H            -5.450000            -0.259808             0.063401
C            -2.800000            -4.849742             0.094788
C            -1.400000            -4.849742             0.043230
C            -0.700000            -6.062178             0.043226
C             0.700000            -6.062178             0.088905
C             1.400000            -7.274613             0.088453
C             2.800000            -7.274613             0.049614
C             3.500000            -8.487049             0.031435
C             4.900000            -8.487049             0.034004
H             5.450000            -9.439677             0.049440
C            -7.000000            -2.424871             0.014867
C            -7.700000            -3.637307             0.003735
C            -7.000000            -4.849742             0.089004
C            -5.600000            -4.849742             0.008718
H            -7.550000            -1.472243             0.018723
H            -8.800000            -3.637307             0.066740
H            -7.550000            -5.802370             0.031035
C            -4.900000            -6.062178             0.085973
C            -3.500000            -6.062178             0.072677
H            -5.450000            -7.014806             0.005519
C            -2.800000            -7.274613             0.073752
C            -1.400000            -7.274613             0.069433
H            -3.350000            -8.227241             0.090436
C            -0.700000            -8.487049             0.092018
C             0.700000            -8.487049             0.031662
H            -1.250000            -9.439677             0.046651
C             1.400000            -9.699485             0.013758
C             2.800000            -9.699485             0.009410
H             0.850000           -10.652112             0.053915
H             3.350000           -10.652112             0.013703
