78
isomero_11_18
C             0.700000             1.212436             0.095067
C            -0.700000             1.212436             0.054233
C            -1.400000             0.000000             0.096703
C            -0.700000            -1.212436             0.016185
C             0.700000            -1.212436             0.000041
C             1.400000            -0.000000             0.086216
H             1.250000             2.165064             0.031956
H            -1.250000             2.165064             0.019516
C             2.800000             0.000000             0.099936
C             1.400000            -2.424871             0.021041
C             2.800000            -2.424871             0.027258
C             3.500000            -1.212436             0.094842
H             3.350000             0.952628             0.001549
C             4.900000            -1.212436             0.088716
C             3.500000            -3.637307             0.065409
C             4.900000            -3.637307             0.095464
C             5.600000            -2.424871             0.038276
H             5.450000            -0.259808             0.060017
C             7.000000            -2.424871             0.025295
C             5.600000            -4.849742             0.060051
C             7.000000            -4.849742             0.020313
C             7.700000            -3.637307             0.068368
H             7.550000            -1.472243             0.015172
C             9.100000            -3.637307             0.033031
C             7.700000            -6.062178             0.077390
C             9.100000            -6.062178             0.034253
C             9.800000            -4.849742             0.006323
H             9.650000            -2.684679             0.072930
H             9.650000            -7.014806             0.059788
H            10.900000            -4.849742             0.004282
C            -2.800000             0.000000             0.079276
B            -3.500000            -1.212436             0.079749
N            -2.800000            -2.424871             0.092037
C            -1.400000            -2.424871             0.056224
H            -3.350000             0.952628             0.013655
C            -0.700000            -3.637307             0.033618
C             0.700000            -3.637307             0.057445
C             1.400000            -4.849742             0.021651
C             2.800000            -4.849742             0.075194
C             3.500000            -6.062178             0.068288
C             4.900000            -6.062178             0.052111
C             5.600000            -7.274613             0.063882
C             7.000000            -7.274613             0.094724
H             7.550000            -8.227241             0.002588
C            -4.900000            -1.212436             0.035896
C            -5.600000            -2.424871             0.045961
C            -4.900000            -3.637307             0.025855
C            -3.500000            -3.637307             0.034381
H            -5.450000            -0.259808             0.089973
C            -2.800000            -4.849742             0.085779
C            -1.400000            -4.849742             0.057952
C            -0.700000            -6.062178             0.003317
C             0.700000            -6.062178             0.027268
C             1.400000            -7.274613             0.075397
C             2.800000            -7.274613             0.077881
C             3.500000            -8.487049             0.068403
C             4.900000            -8.487049             0.084652
H             5.450000            -9.439677             0.064589
C            -7.000000            -2.424871             0.075175
C            -7.700000            -3.637307             0.068622
C            -7.000000            -4.849742             0.001981
C            -5.600000            -4.849742             0.023701
H            -7.550000            -1.472243             0.032857
H            -8.800000            -3.637307             0.035104
H            -7.550000            -5.802370             0.002545
C            -4.900000            -6.062178             0.038844
C            -3.500000            -6.062178             0.019063
H            -5.450000            -7.014806             0.042247
C            -2.800000            -7.274613             0.030964
C            -1.400000            -7.274613             0.063519
H            -3.350000            -8.227241             0.017131
C            -0.700000            -8.487049             0.010510
C             0.700000            -8.487049             0.030328
H            -1.250000            -9.439677             0.031611
C             1.400000            -9.699485             0.003575
C             2.800000            -9.699485             0.026077
H             0.850000           -10.652112             0.033311
H             3.350000           -10.652112             0.096716
