78
isomero_6_11
C             0.700000             1.212436             0.030963
C            -0.700000             1.212436             0.052677
C            -1.400000             0.000000             0.031005
C            -0.700000            -1.212436             0.087627
C             0.700000            -1.212436             0.008406
C             1.400000            -0.000000             0.047814
H             1.250000             2.165064             0.011735
H            -1.250000             2.165064             0.071102
C             2.800000             0.000000             0.054697
C             1.400000            -2.424871             0.094891
C             2.800000            -2.424871             0.067582
C             3.500000            -1.212436             0.027694
H             3.350000             0.952628             0.046582
C             4.900000            -1.212436             0.066270
C             3.500000            -3.637307             0.062155
C             4.900000            -3.637307             0.009660
C             5.600000            -2.424871             0.074107
H             5.450000            -0.259808             0.085447
C             7.000000            -2.424871             0.067709
C             5.600000            -4.849742             0.070850
C             7.000000            -4.849742             0.009670
C             7.700000            -3.637307             0.038586
H             7.550000            -1.472243             0.005423
C             9.100000            -3.637307             0.078956
C             7.700000            -6.062178             0.018573
C             9.100000            -6.062178             0.034295
C             9.800000            -4.849742             0.008032
H             9.650000            -2.684679             0.081865
H             9.650000            -7.014806             0.016084
H            10.900000            -4.849742             0.078049
B            -2.800000             0.000000             0.097011
N            -3.500000            -1.212436             0.037617
C            -2.800000            -2.424871             0.080373
C            -1.400000            -2.424871             0.014923
H            -3.350000             0.952628             0.088094
C            -0.700000            -3.637307             0.049563
C             0.700000            -3.637307             0.015577
C             1.400000            -4.849742             0.068044
C             2.800000            -4.849742             0.061572
C             3.500000            -6.062178             0.060682
C             4.900000            -6.062178             0.077108
C             5.600000            -7.274613             0.027340
C             7.000000            -7.274613             0.097515
H             7.550000            -8.227241             0.045337
C            -4.900000            -1.212436             0.042968
C            -5.600000            -2.424871             0.049923
C            -4.900000            -3.637307             0.005773
C            -3.500000            -3.637307             0.044273
H            -5.450000            -0.259808             0.023633
C            -2.800000            -4.849742             0.019882
C            -1.400000            -4.849742             0.051188
C            -0.700000            -6.062178             0.063921
C             0.700000            -6.062178             0.013692
C             1.400000            -7.274613             0.026361
C             2.800000            -7.274613             0.071837
C             3.500000            -8.487049             0.050085
C             4.900000            -8.487049             0.016143
H             5.450000            -9.439677             0.036276
C            -7.000000            -2.424871             0.012070
C            -7.700000            -3.637307             0.071931
C            -7.000000            -4.849742             0.027257
C            -5.600000            -4.849742             0.067910
H            -7.550000            -1.472243             0.067682
H            -8.800000            -3.637307             0.026115
H            -7.550000            -5.802370             0.048288
C            -4.900000            -6.062178             0.048248
C            -3.500000            -6.062178             0.040659
H            -5.450000            -7.014806             0.086911
C            -2.800000            -7.274613             0.087485
C            -1.400000            -7.274613             0.036472
H            -3.350000            -8.227241             0.058476
C            -0.700000            -8.487049             0.080545
C             0.700000            -8.487049             0.074723
H            -1.250000            -9.439677             0.020336
C             1.400000            -9.699485             0.018420
C             2.800000            -9.699485             0.024627
H             0.850000           -10.652112             0.087311
H             3.350000           -10.652112             0.043289
