78
isomero_9_4
C             0.700000             1.212436             0.039629
C            -0.700000             1.212436             0.020639
C            -1.400000             0.000000             0.072147
C            -0.700000            -1.212436             0.036531
B             0.700000            -1.212436             0.055446
N             1.400000            -0.000000             0.063940
H             1.250000             2.165064             0.075374
H            -1.250000             2.165064             0.045107
C             2.800000             0.000000             0.002078
C             1.400000            -2.424871             0.019656
C             2.800000            -2.424871             0.025958
C             3.500000            -1.212436             0.051632
H             3.350000             0.952628             0.024866
C             4.900000            -1.212436             0.063715
C             3.500000            -3.637307             0.069333
C             4.900000            -3.637307             0.076064
C             5.600000            -2.424871             0.026106
H             5.450000            -0.259808             0.019535
C             7.000000            -2.424871             0.084017
C             5.600000            -4.849742             0.021277
C             7.000000            -4.849742             0.072041
C             7.700000            -3.637307             0.059771
H             7.550000            -1.472243             0.015019
C             9.100000            -3.637307             0.057301
C             7.700000            -6.062178             0.040168
C             9.100000            -6.062178             0.033943
C             9.800000            -4.849742             0.054935
H             9.650000            -2.684679             0.085590
H             9.650000            -7.014806             0.045375
H            10.900000            -4.849742             0.035462
C            -2.800000             0.000000             0.041443
C            -3.500000            -1.212436             0.032171
C            -2.800000            -2.424871             0.090803
C            -1.400000            -2.424871             0.094982
H            -3.350000             0.952628             0.070513
C            -0.700000            -3.637307             0.009271
C             0.700000            -3.637307             0.080913
C             1.400000            -4.849742             0.027091
C             2.800000            -4.849742             0.068682
C             3.500000            -6.062178             0.091336
C             4.900000            -6.062178             0.009372
C             5.600000            -7.274613             0.029696
C             7.000000            -7.274613             0.077012
H             7.550000            -8.227241             0.051897
C            -4.900000            -1.212436             0.061710
C            -5.600000            -2.424871             0.011918
C            -4.900000            -3.637307             0.056055
C            -3.500000            -3.637307             0.095647
H            -5.450000            -0.259808             0.072743
C            -2.800000            -4.849742             0.092332
C            -1.400000            -4.849742             0.005331
C            -0.700000            -6.062178             0.072533
C             0.700000            -6.062178             0.008222
C             1.400000            -7.274613             0.072374
C             2.800000            -7.274613             0.004601
C             3.500000            -8.487049             0.058546
C             4.900000            -8.487049             0.030119
H             5.450000            -9.439677             0.041461
C            -7.000000            -2.424871             0.095860
C            -7.700000            -3.637307             0.019847
C            -7.000000            -4.849742             0.049399
C            -5.600000            -4.849742             0.008944
H            -7.550000            -1.472243             0.084081
H            -8.800000            -3.637307             0.064445
H            -7.550000            -5.802370             0.000758
C            -4.900000            -6.062178             0.095810
C            -3.500000            -6.062178             0.022399
H            -5.450000            -7.014806             0.022978
C            -2.800000            -7.274613             0.077808
C            -1.400000            -7.274613             0.099230
H            -3.350000            -8.227241             0.054685
C            -0.700000            -8.487049             0.010257
C             0.700000            -8.487049             0.005616
H            -1.250000            -9.439677             0.022646
C             1.400000            -9.699485             0.030954
C             2.800000            -9.699485             0.081221
H             0.850000           -10.652112             0.085590
H             3.350000           -10.652112             0.014431
