78
isomero_26_25
C             0.700000             1.212436             0.096564
C            -0.700000             1.212436             0.014744
C            -1.400000             0.000000             0.077542
C            -0.700000            -1.212436             0.068960
C             0.700000            -1.212436             0.011825
C             1.400000            -0.000000             0.075907
H             1.250000             2.165064             0.033351
H            -1.250000             2.165064             0.067671
C             2.800000             0.000000             0.039771
C             1.400000            -2.424871             0.013352
C             2.800000            -2.424871             0.061665
C             3.500000            -1.212436             0.079651
H             3.350000             0.952628             0.058862
C             4.900000            -1.212436             0.056475
C             3.500000            -3.637307             0.018087
C             4.900000            -3.637307             0.051153
C             5.600000            -2.424871             0.096475
H             5.450000            -0.259808             0.054728
C             7.000000            -2.424871             0.055436
C             5.600000            -4.849742             0.019381
C             7.000000            -4.849742             0.026954
C             7.700000            -3.637307             0.092951
H             7.550000            -1.472243             0.010301
C             9.100000            -3.637307             0.018360
C             7.700000            -6.062178             0.024308
C             9.100000            -6.062178             0.074466
C             9.800000            -4.849742             0.024393
H             9.650000            -2.684679             0.041145
H             9.650000            -7.014806             0.026472
H            10.900000            -4.849742             0.047024
C            -2.800000             0.000000             0.038426
C            -3.500000            -1.212436             0.020879
C            -2.800000            -2.424871             0.007739
C            -1.400000            -2.424871             0.094087
H            -3.350000             0.952628             0.052208
B            -0.700000            -3.637307             0.028024
N             0.700000            -3.637307             0.041692
C             1.400000            -4.849742             0.026458
C             2.800000            -4.849742             0.052463
C             3.500000            -6.062178             0.040580
C             4.900000            -6.062178             0.055360
C             5.600000            -7.274613             0.027071
C             7.000000            -7.274613             0.079231
H             7.550000            -8.227241             0.003189
C            -4.900000            -1.212436             0.068063
C            -5.600000            -2.424871             0.087259
C            -4.900000            -3.637307             0.099179
C            -3.500000            -3.637307             0.079676
H            -5.450000            -0.259808             0.065067
C            -2.800000            -4.849742             0.053510
C            -1.400000            -4.849742             0.028740
C            -0.700000            -6.062178             0.009842
C             0.700000            -6.062178             0.058989
C             1.400000            -7.274613             0.091432
C             2.800000            -7.274613             0.037121
C             3.500000            -8.487049             0.028415
C             4.900000            -8.487049             0.022273
H             5.450000            -9.439677             0.005314
C            -7.000000            -2.424871             0.089823
C            -7.700000            -3.637307             0.019941
C            -7.000000            -4.849742             0.071427
C            -5.600000            -4.849742             0.073136
H            -7.550000            -1.472243             0.022893
H            -8.800000            -3.637307             0.068837
H            -7.550000            -5.802370             0.076208
C            -4.900000            -6.062178             0.035005
C            -3.500000            -6.062178             0.024558
H            -5.450000            -7.014806             0.022320
C            -2.800000            -7.274613             0.024681
C            -1.400000            -7.274613             0.073086
H            -3.350000            -8.227241             0.080436
C            -0.700000            -8.487049             0.077682
C             0.700000            -8.487049             0.016241
H            -1.250000            -9.439677             0.034717
C             1.400000            -9.699485             0.003070
C             2.800000            -9.699485             0.003498
H             0.850000           -10.652112             0.048000
H             3.350000           -10.652112             0.002406
