78
isomero_4_3
C             0.700000             1.212436             0.007821
C            -0.700000             1.212436             0.046165
C            -1.400000             0.000000             0.085332
C            -0.700000            -1.212436             0.065343
C             0.700000            -1.212436             0.080172
B             1.400000            -0.000000             0.098509
H             1.250000             2.165064             0.070775
H            -1.250000             2.165064             0.037247
N             2.800000             0.000000             0.070427
C             1.400000            -2.424871             0.080482
C             2.800000            -2.424871             0.008846
C             3.500000            -1.212436             0.006921
H             3.350000             0.952628             0.077317
C             4.900000            -1.212436             0.086502
C             3.500000            -3.637307             0.035375
C             4.900000            -3.637307             0.068464
C             5.600000            -2.424871             0.060443
H             5.450000            -0.259808             0.019549
C             7.000000            -2.424871             0.064865
C             5.600000            -4.849742             0.032912
C             7.000000            -4.849742             0.042392
C             7.700000            -3.637307             0.080943
H             7.550000            -1.472243             0.070911
C             9.100000            -3.637307             0.030039
C             7.700000            -6.062178             0.009930
C             9.100000            -6.062178             0.035088
C             9.800000            -4.849742             0.086416
H             9.650000            -2.684679             0.088035
H             9.650000            -7.014806             0.098048
H            10.900000            -4.849742             0.043433
C            -2.800000             0.000000             0.018980
C            -3.500000            -1.212436             0.037124
C            -2.800000            -2.424871             0.038662
C            -1.400000            -2.424871             0.020051
H            -3.350000             0.952628             0.083250
C            -0.700000            -3.637307             0.035285
C             0.700000            -3.637307             0.043229
C             1.400000            -4.849742             0.033780
C             2.800000            -4.849742             0.014930
C             3.500000            -6.062178             0.022792
C             4.900000            -6.062178             0.062177
C             5.600000            -7.274613             0.077981
C             7.000000            -7.274613             0.023277
H             7.550000            -8.227241             0.002357
C            -4.900000            -1.212436             0.058924
C            -5.600000            -2.424871             0.015511
C            -4.900000            -3.637307             0.013278
C            -3.500000            -3.637307             0.060221
H            -5.450000            -0.259808             0.072097
C            -2.800000            -4.849742             0.073467
C            -1.400000            -4.849742             0.088429
C            -0.700000            -6.062178             0.084776
C             0.700000            -6.062178             0.027522
C             1.400000            -7.274613             0.049281
C             2.800000            -7.274613             0.037047
C             3.500000            -8.487049             0.076494
C             4.900000            -8.487049             0.080456
H             5.450000            -9.439677             0.058540
C            -7.000000            -2.424871             0.067987
C            -7.700000            -3.637307             0.022471
C            -7.000000            -4.849742             0.021198
C            -5.600000            -4.849742             0.068597
H            -7.550000            -1.472243             0.089004
H            -8.800000            -3.637307             0.025312
H            -7.550000            -5.802370             0.084587
C            -4.900000            -6.062178             0.012596
C            -3.500000            -6.062178             0.063870
H            -5.450000            -7.014806             0.094857
C            -2.800000            -7.274613             0.078807
C            -1.400000            -7.274613             0.061011
H            -3.350000            -8.227241             0.057083
C            -0.700000            -8.487049             0.000569
C             0.700000            -8.487049             0.060323
H            -1.250000            -9.439677             0.024821
C             1.400000            -9.699485             0.030827
C             2.800000            -9.699485             0.070319
H             0.850000           -10.652112             0.049412
H             3.350000           -10.652112             0.096722
