78
isomero_20_19
C             0.700000             1.212436             0.031567
C            -0.700000             1.212436             0.007751
C            -1.400000             0.000000             0.050604
C            -0.700000            -1.212436             0.054923
C             0.700000            -1.212436             0.073974
C             1.400000            -0.000000             0.093575
H             1.250000             2.165064             0.000620
H            -1.250000             2.165064             0.016153
C             2.800000             0.000000             0.091687
C             1.400000            -2.424871             0.008360
C             2.800000            -2.424871             0.035395
C             3.500000            -1.212436             0.027574
H             3.350000             0.952628             0.019522
C             4.900000            -1.212436             0.035776
C             3.500000            -3.637307             0.028594
C             4.900000            -3.637307             0.008966
C             5.600000            -2.424871             0.012441
H             5.450000            -0.259808             0.047041
C             7.000000            -2.424871             0.052317
C             5.600000            -4.849742             0.034324
C             7.000000            -4.849742             0.058295
C             7.700000            -3.637307             0.034146
H             7.550000            -1.472243             0.083176
C             9.100000            -3.637307             0.086145
C             7.700000            -6.062178             0.026119
C             9.100000            -6.062178             0.003606
C             9.800000            -4.849742             0.036814
H             9.650000            -2.684679             0.047107
H             9.650000            -7.014806             0.033187
H            10.900000            -4.849742             0.069886
C            -2.800000             0.000000             0.030014
C            -3.500000            -1.212436             0.024983
C            -2.800000            -2.424871             0.075144
C            -1.400000            -2.424871             0.042573
H            -3.350000             0.952628             0.073344
C            -0.700000            -3.637307             0.046513
C             0.700000            -3.637307             0.010084
C             1.400000            -4.849742             0.057663
C             2.800000            -4.849742             0.045141
C             3.500000            -6.062178             0.067453
C             4.900000            -6.062178             0.028605
C             5.600000            -7.274613             0.072779
C             7.000000            -7.274613             0.087844
H             7.550000            -8.227241             0.003356
C            -4.900000            -1.212436             0.074495
N            -5.600000            -2.424871             0.069194
C            -4.900000            -3.637307             0.087525
C            -3.500000            -3.637307             0.024118
H            -5.450000            -0.259808             0.082628
C            -2.800000            -4.849742             0.079940
C            -1.400000            -4.849742             0.080194
C            -0.700000            -6.062178             0.009492
C             0.700000            -6.062178             0.063298
C             1.400000            -7.274613             0.088435
C             2.800000            -7.274613             0.029445
C             3.500000            -8.487049             0.025871
C             4.900000            -8.487049             0.055875
H             5.450000            -9.439677             0.083015
B            -7.000000            -2.424871             0.074038
C            -7.700000            -3.637307             0.018398
C            -7.000000            -4.849742             0.085121
C            -5.600000            -4.849742             0.069344
H            -7.550000            -1.472243             0.006951
H            -8.800000            -3.637307             0.093686
H            -7.550000            -5.802370             0.055277
C            -4.900000            -6.062178             0.053220
C            -3.500000            -6.062178             0.032519
H            -5.450000            -7.014806             0.073243
C            -2.800000            -7.274613             0.030217
C            -1.400000            -7.274613             0.021114
H            -3.350000            -8.227241             0.015106
C            -0.700000            -8.487049             0.009943
C             0.700000            -8.487049             0.018082
H            -1.250000            -9.439677             0.083875
C             1.400000            -9.699485             0.033810
C             2.800000            -9.699485             0.075136
H             0.850000           -10.652112             0.090331
H             3.350000           -10.652112             0.051578
