78
isomero_17_10
C             0.700000             1.212436             0.021270
C            -0.700000             1.212436             0.050905
C            -1.400000             0.000000             0.004793
N            -0.700000            -1.212436             0.074340
C             0.700000            -1.212436             0.000578
C             1.400000            -0.000000             0.056410
H             1.250000             2.165064             0.024833
H            -1.250000             2.165064             0.043993
C             2.800000             0.000000             0.081282
C             1.400000            -2.424871             0.083904
C             2.800000            -2.424871             0.097059
C             3.500000            -1.212436             0.054706
H             3.350000             0.952628             0.026975
C             4.900000            -1.212436             0.001284
C             3.500000            -3.637307             0.050077
C             4.900000            -3.637307             0.024670
C             5.600000            -2.424871             0.043500
H             5.450000            -0.259808             0.001203
C             7.000000            -2.424871             0.060851
C             5.600000            -4.849742             0.027378
C             7.000000            -4.849742             0.090868
C             7.700000            -3.637307             0.085794
H             7.550000            -1.472243             0.042851
C             9.100000            -3.637307             0.021821
C             7.700000            -6.062178             0.053866
C             9.100000            -6.062178             0.068492
C             9.800000            -4.849742             0.072305
H             9.650000            -2.684679             0.037155
H             9.650000            -7.014806             0.066924
H            10.900000            -4.849742             0.019484
C            -2.800000             0.000000             0.026358
C            -3.500000            -1.212436             0.061562
C            -2.800000            -2.424871             0.066645
B            -1.400000            -2.424871             0.054248
H            -3.350000             0.952628             0.039203
C            -0.700000            -3.637307             0.091455
C             0.700000            -3.637307             0.027326
C             1.400000            -4.849742             0.008480
C             2.800000            -4.849742             0.016099
C             3.500000            -6.062178             0.003302
C             4.900000            -6.062178             0.076239
C             5.600000            -7.274613             0.065819
C             7.000000            -7.274613             0.006217
H             7.550000            -8.227241             0.011727
C            -4.900000            -1.212436             0.078949
C            -5.600000            -2.424871             0.042337
C            -4.900000            -3.637307             0.036769
C            -3.500000            -3.637307             0.077112
H            -5.450000            -0.259808             0.080050
C            -2.800000            -4.849742             0.040340
C            -1.400000            -4.849742             0.038431
C            -0.700000            -6.062178             0.023820
C             0.700000            -6.062178             0.033014
C             1.400000            -7.274613             0.051114
C             2.800000            -7.274613             0.093435
C             3.500000            -8.487049             0.035073
C             4.900000            -8.487049             0.095651
H             5.450000            -9.439677             0.036387
C            -7.000000            -2.424871             0.050477
C            -7.700000            -3.637307             0.023408
C            -7.000000            -4.849742             0.075584
C            -5.600000            -4.849742             0.079294
H            -7.550000            -1.472243             0.007780
H            -8.800000            -3.637307             0.092877
H            -7.550000            -5.802370             0.079578
C            -4.900000            -6.062178             0.058165
C            -3.500000            -6.062178             0.006961
H            -5.450000            -7.014806             0.064694
C            -2.800000            -7.274613             0.017663
C            -1.400000            -7.274613             0.017544
H            -3.350000            -8.227241             0.044088
C            -0.700000            -8.487049             0.020667
C             0.700000            -8.487049             0.081991
H            -1.250000            -9.439677             0.077501
C             1.400000            -9.699485             0.046176
C             2.800000            -9.699485             0.091884
H             0.850000           -10.652112             0.076170
H             3.350000           -10.652112             0.054691
