78
isomero_2_5
C             0.700000             1.212436             0.094332
B            -0.700000             1.212436             0.064386
N            -1.400000             0.000000             0.042854
C            -0.700000            -1.212436             0.083614
C             0.700000            -1.212436             0.014461
C             1.400000            -0.000000             0.016621
H             1.250000             2.165064             0.091448
H            -1.250000             2.165064             0.048142
C             2.800000             0.000000             0.039917
C             1.400000            -2.424871             0.052000
C             2.800000            -2.424871             0.091702
C             3.500000            -1.212436             0.066596
H             3.350000             0.952628             0.010006
C             4.900000            -1.212436             0.092896
C             3.500000            -3.637307             0.022597
C             4.900000            -3.637307             0.082805
C             5.600000            -2.424871             0.092452
H             5.450000            -0.259808             0.081052
C             7.000000            -2.424871             0.072285
C             5.600000            -4.849742             0.014263
C             7.000000            -4.849742             0.072537
C             7.700000            -3.637307             0.077160
H             7.550000            -1.472243             0.068577
C             9.100000            -3.637307             0.094667
C             7.700000            -6.062178             0.071504
C             9.100000            -6.062178             0.024544
C             9.800000            -4.849742             0.018514
H             9.650000            -2.684679             0.026087
H             9.650000            -7.014806             0.007852
H            10.900000            -4.849742             0.003103
C            -2.800000             0.000000             0.048398
C            -3.500000            -1.212436             0.040713
C            -2.800000            -2.424871             0.046867
C            -1.400000            -2.424871             0.062795
H            -3.350000             0.952628             0.029270
C            -0.700000            -3.637307             0.010545
C             0.700000            -3.637307             0.053270
C             1.400000            -4.849742             0.091461
C             2.800000            -4.849742             0.061133
C             3.500000            -6.062178             0.088339
C             4.900000            -6.062178             0.032280
C             5.600000            -7.274613             0.022381
C             7.000000            -7.274613             0.072978
H             7.550000            -8.227241             0.035171
C            -4.900000            -1.212436             0.037543
C            -5.600000            -2.424871             0.029222
C            -4.900000            -3.637307             0.033631
C            -3.500000            -3.637307             0.083472
H            -5.450000            -0.259808             0.093096
C            -2.800000            -4.849742             0.066040
C            -1.400000            -4.849742             0.080044
C            -0.700000            -6.062178             0.028981
C             0.700000            -6.062178             0.098012
C             1.400000            -7.274613             0.093466
C             2.800000            -7.274613             0.025289
C             3.500000            -8.487049             0.070201
C             4.900000            -8.487049             0.022720
H             5.450000            -9.439677             0.070260
C            -7.000000            -2.424871             0.037239
C            -7.700000            -3.637307             0.076436
C            -7.000000            -4.849742             0.057882
C            -5.600000            -4.849742             0.034662
H            -7.550000            -1.472243             0.064790
H            -8.800000            -3.637307             0.079011
H            -7.550000            -5.802370             0.021432
C            -4.900000            -6.062178             0.096422
C            -3.500000            -6.062178             0.018443
H            -5.450000            -7.014806             0.068845
C            -2.800000            -7.274613             0.087784
C            -1.400000            -7.274613             0.096048
H            -3.350000            -8.227241             0.044805
C            -0.700000            -8.487049             0.066016
C             0.700000            -8.487049             0.017791
H            -1.250000            -9.439677             0.057020
C             1.400000            -9.699485             0.087536
C             2.800000            -9.699485             0.018896
H             0.850000           -10.652112             0.052063
H             3.350000           -10.652112             0.041291
