78
isomero_7_8
C             0.700000             1.212436             0.029606
C            -0.700000             1.212436             0.043410
C            -1.400000             0.000000             0.058753
C            -0.700000            -1.212436             0.071495
C             0.700000            -1.212436             0.017808
C             1.400000            -0.000000             0.088981
H             1.250000             2.165064             0.035446
H            -1.250000             2.165064             0.090139
C             2.800000             0.000000             0.057334
C             1.400000            -2.424871             0.045146
C             2.800000            -2.424871             0.047874
N             3.500000            -1.212436             0.073668
H             3.350000             0.952628             0.058613
B             4.900000            -1.212436             0.072670
C             3.500000            -3.637307             0.039233
C             4.900000            -3.637307             0.088616
C             5.600000            -2.424871             0.096027
H             5.450000            -0.259808             0.057802
C             7.000000            -2.424871             0.032474
C             5.600000            -4.849742             0.004225
C             7.000000            -4.849742             0.039656
C             7.700000            -3.637307             0.073018
H             7.550000            -1.472243             0.060697
C             9.100000            -3.637307             0.071899
C             7.700000            -6.062178             0.025100
C             9.100000            -6.062178             0.005334
C             9.800000            -4.849742             0.075905
H             9.650000            -2.684679             0.078593
H             9.650000            -7.014806             0.008463
H            10.900000            -4.849742             0.076615
C            -2.800000             0.000000             0.077985
C            -3.500000            -1.212436             0.079170
C            -2.800000            -2.424871             0.081448
C            -1.400000            -2.424871             0.059206
H            -3.350000             0.952628             0.049951
C            -0.700000            -3.637307             0.058030
C             0.700000            -3.637307             0.012466
C             1.400000            -4.849742             0.079098
C             2.800000            -4.849742             0.026755
C             3.500000            -6.062178             0.078036
C             4.900000            -6.062178             0.086662
C             5.600000            -7.274613             0.080784
C             7.000000            -7.274613             0.034129
H             7.550000            -8.227241             0.021671
C            -4.900000            -1.212436             0.010631
C            -5.600000            -2.424871             0.080343
C            -4.900000            -3.637307             0.051221
C            -3.500000            -3.637307             0.044735
H            -5.450000            -0.259808             0.058474
C            -2.800000            -4.849742             0.031250
C            -1.400000            -4.849742             0.020410
C            -0.700000            -6.062178             0.063774
C             0.700000            -6.062178             0.048549
C             1.400000            -7.274613             0.010266
C             2.800000            -7.274613             0.006337
C             3.500000            -8.487049             0.072210
C             4.900000            -8.487049             0.024237
H             5.450000            -9.439677             0.070192
C            -7.000000            -2.424871             0.054698
C            -7.700000            -3.637307             0.076925
C            -7.000000            -4.849742             0.072912
C            -5.600000            -4.849742             0.056078
H            -7.550000            -1.472243             0.026875
H            -8.800000            -3.637307             0.034634
H            -7.550000            -5.802370             0.076405
C            -4.900000            -6.062178             0.056040
C            -3.500000            -6.062178             0.011503
H            -5.450000            -7.014806             0.059471
C            -2.800000            -7.274613             0.041651
C            -1.400000            -7.274613             0.042842
H            -3.350000            -8.227241             0.012476
C            -0.700000            -8.487049             0.034050
C             0.700000            -8.487049             0.036335
H            -1.250000            -9.439677             0.060387
C             1.400000            -9.699485             0.067393
C             2.800000            -9.699485             0.021510
H             0.850000           -10.652112             0.015070
H             3.350000           -10.652112             0.012317
