50
isomero_4_1
N             0.700000             1.212436             0.067156
C            -0.700000             1.212436             0.063985
C            -1.400000             0.000000             0.037244
C            -0.700000            -1.212436             0.016287
C             0.700000            -1.212436             0.038952
B             1.400000            -0.000000             0.079998
H             1.250000             2.165064             0.039979
H            -1.250000             2.165064             0.075512
C             2.800000             0.000000             0.029521
C             1.400000            -2.424871             0.064001
C             2.800000            -2.424871             0.088512
C             3.500000            -1.212436             0.020964
H             3.350000             0.952628             0.048036
C             4.900000            -1.212436             0.011299
C             3.500000            -3.637307             0.013237
C             4.900000            -3.637307             0.006400
C             5.600000            -2.424871             0.007930
H             5.450000            -0.259808             0.062695
C             7.000000            -2.424871             0.041133
C             5.600000            -4.849742             0.063859
C             7.000000            -4.849742             0.085656
C             7.700000            -3.637307             0.076358
H             7.550000            -1.472243             0.097616
C             9.100000            -3.637307             0.078154
C             7.700000            -6.062178             0.093558
C             9.100000            -6.062178             0.073915
C             9.800000            -4.849742             0.025362
H             9.650000            -2.684679             0.071925
H             9.650000            -7.014806             0.069351
H            10.900000            -4.849742             0.077332
C            -2.800000             0.000000             0.074722
C            -3.500000            -1.212436             0.031838
C            -2.800000            -2.424871             0.051043
C            -1.400000            -2.424871             0.077307
H            -3.350000             0.952628             0.057282
H            -4.600000            -1.212436             0.095385
H            -3.350000            -3.377499             0.017157
C            -0.700000            -3.637307             0.090724
C             0.700000            -3.637307             0.075222
H            -1.250000            -4.589935             0.028618
C             1.400000            -4.849742             0.062741
C             2.800000            -4.849742             0.046283
H             0.850000            -5.802370             0.012944
C             3.500000            -6.062178             0.054938
C             4.900000            -6.062178             0.096951
H             2.950000            -7.014806             0.044214
C             5.600000            -7.274613             0.059096
C             7.000000            -7.274613             0.011097
H             5.050000            -8.227241             0.019985
H             7.550000            -8.227241             0.016296
