50
isomero_10_9
C             0.700000             1.212436             0.089384
C            -0.700000             1.212436             0.084101
C            -1.400000             0.000000             0.068328
B            -0.700000            -1.212436             0.017180
N             0.700000            -1.212436             0.023755
C             1.400000            -0.000000             0.043429
H             1.250000             2.165064             0.002506
H            -1.250000             2.165064             0.026865
C             2.800000             0.000000             0.098016
C             1.400000            -2.424871             0.031269
C             2.800000            -2.424871             0.057175
C             3.500000            -1.212436             0.061166
H             3.350000             0.952628             0.090154
C             4.900000            -1.212436             0.039604
C             3.500000            -3.637307             0.069277
C             4.900000            -3.637307             0.020449
C             5.600000            -2.424871             0.006285
H             5.450000            -0.259808             0.062239
C             7.000000            -2.424871             0.068802
C             5.600000            -4.849742             0.029679
C             7.000000            -4.849742             0.057156
C             7.700000            -3.637307             0.031622
H             7.550000            -1.472243             0.080950
C             9.100000            -3.637307             0.036550
C             7.700000            -6.062178             0.069879
C             9.100000            -6.062178             0.063343
C             9.800000            -4.849742             0.096458
H             9.650000            -2.684679             0.020080
H             9.650000            -7.014806             0.059818
H            10.900000            -4.849742             0.008370
C            -2.800000             0.000000             0.054441
C            -3.500000            -1.212436             0.084615
C            -2.800000            -2.424871             0.004070
C            -1.400000            -2.424871             0.032936
H            -3.350000             0.952628             0.070935
H            -4.600000            -1.212436             0.086031
H            -3.350000            -3.377499             0.050090
C            -0.700000            -3.637307             0.099476
C             0.700000            -3.637307             0.042864
H            -1.250000            -4.589935             0.026735
C             1.400000            -4.849742             0.047295
C             2.800000            -4.849742             0.016085
H             0.850000            -5.802370             0.015890
C             3.500000            -6.062178             0.026834
C             4.900000            -6.062178             0.075712
H             2.950000            -7.014806             0.060917
C             5.600000            -7.274613             0.096693
C             7.000000            -7.274613             0.077332
H             5.050000            -8.227241             0.057286
H             7.550000            -8.227241             0.045022
