50
isomero_13_12
C             0.700000             1.212436             0.038589
C            -0.700000             1.212436             0.008035
C            -1.400000             0.000000             0.086558
C            -0.700000            -1.212436             0.043537
C             0.700000            -1.212436             0.017208
C             1.400000            -0.000000             0.000430
H             1.250000             2.165064             0.065250
H            -1.250000             2.165064             0.036969
C             2.800000             0.000000             0.037610
C             1.400000            -2.424871             0.044134
C             2.800000            -2.424871             0.051612
C             3.500000            -1.212436             0.030011
H             3.350000             0.952628             0.047832
C             4.900000            -1.212436             0.000625
C             3.500000            -3.637307             0.017144
C             4.900000            -3.637307             0.030356
B             5.600000            -2.424871             0.074446
H             5.450000            -0.259808             0.058089
N             7.000000            -2.424871             0.070121
C             5.600000            -4.849742             0.080466
C             7.000000            -4.849742             0.085199
C             7.700000            -3.637307             0.011772
H             7.550000            -1.472243             0.065726
C             9.100000            -3.637307             0.075295
C             7.700000            -6.062178             0.070213
C             9.100000            -6.062178             0.060512
C             9.800000            -4.849742             0.003827
H             9.650000            -2.684679             0.019515
H             9.650000            -7.014806             0.033068
H            10.900000            -4.849742             0.064283
C            -2.800000             0.000000             0.021740
C            -3.500000            -1.212436             0.007691
C            -2.800000            -2.424871             0.098059
C            -1.400000            -2.424871             0.020676
H            -3.350000             0.952628             0.098325
H            -4.600000            -1.212436             0.061037
H            -3.350000            -3.377499             0.024798
C            -0.700000            -3.637307             0.051796
C             0.700000            -3.637307             0.071283
H            -1.250000            -4.589935             0.025987
C             1.400000            -4.849742             0.011469
C             2.800000            -4.849742             0.054967
H             0.850000            -5.802370             0.021890
C             3.500000            -6.062178             0.031218
C             4.900000            -6.062178             0.097313
H             2.950000            -7.014806             0.030919
C             5.600000            -7.274613             0.094625
C             7.000000            -7.274613             0.041056
H             5.050000            -8.227241             0.001033
H             7.550000            -8.227241             0.031007
