50
isomero_14_15
C             0.700000             1.212436             0.084948
C            -0.700000             1.212436             0.080672
C            -1.400000             0.000000             0.018913
C            -0.700000            -1.212436             0.097856
C             0.700000            -1.212436             0.025373
C             1.400000            -0.000000             0.077855
H             1.250000             2.165064             0.081078
H            -1.250000             2.165064             0.049795
C             2.800000             0.000000             0.091572
N             1.400000            -2.424871             0.010098
B             2.800000            -2.424871             0.013582
C             3.500000            -1.212436             0.085832
H             3.350000             0.952628             0.001865
C             4.900000            -1.212436             0.072833
C             3.500000            -3.637307             0.081666
C             4.900000            -3.637307             0.011622
C             5.600000            -2.424871             0.048856
H             5.450000            -0.259808             0.034745
C             7.000000            -2.424871             0.077389
C             5.600000            -4.849742             0.028529
C             7.000000            -4.849742             0.082440
C             7.700000            -3.637307             0.017306
H             7.550000            -1.472243             0.086364
C             9.100000            -3.637307             0.092605
C             7.700000            -6.062178             0.019110
C             9.100000            -6.062178             0.005035
C             9.800000            -4.849742             0.054845
H             9.650000            -2.684679             0.000952
H             9.650000            -7.014806             0.082836
H            10.900000            -4.849742             0.090854
C            -2.800000             0.000000             0.070530
C            -3.500000            -1.212436             0.024333
C            -2.800000            -2.424871             0.058923
C            -1.400000            -2.424871             0.093890
H            -3.350000             0.952628             0.089550
H            -4.600000            -1.212436             0.060623
H            -3.350000            -3.377499             0.079238
C            -0.700000            -3.637307             0.083617
C             0.700000            -3.637307             0.056014
H            -1.250000            -4.589935             0.000070
C             1.400000            -4.849742             0.025128
C             2.800000            -4.849742             0.043195
H             0.850000            -5.802370             0.043065
C             3.500000            -6.062178             0.087523
C             4.900000            -6.062178             0.006764
H             2.950000            -7.014806             0.033991
C             5.600000            -7.274613             0.017706
C             7.000000            -7.274613             0.024604
H             5.050000            -8.227241             0.072782
H             7.550000            -8.227241             0.028820
