50
isomero_8_7
C             0.700000             1.212436             0.087873
C            -0.700000             1.212436             0.039295
C            -1.400000             0.000000             0.024264
C            -0.700000            -1.212436             0.028163
C             0.700000            -1.212436             0.090477
C             1.400000            -0.000000             0.070268
H             1.250000             2.165064             0.085306
H            -1.250000             2.165064             0.037868
C             2.800000             0.000000             0.063302
C             1.400000            -2.424871             0.003156
C             2.800000            -2.424871             0.092003
B             3.500000            -1.212436             0.046975
H             3.350000             0.952628             0.051990
N             4.900000            -1.212436             0.076631
C             3.500000            -3.637307             0.033622
C             4.900000            -3.637307             0.062599
C             5.600000            -2.424871             0.032690
H             5.450000            -0.259808             0.031111
C             7.000000            -2.424871             0.064608
C             5.600000            -4.849742             0.043369
C             7.000000            -4.849742             0.010289
C             7.700000            -3.637307             0.023615
H             7.550000            -1.472243             0.097178
C             9.100000            -3.637307             0.069890
C             7.700000            -6.062178             0.065945
C             9.100000            -6.062178             0.032610
C             9.800000            -4.849742             0.001982
H             9.650000            -2.684679             0.057047
H             9.650000            -7.014806             0.003633
H            10.900000            -4.849742             0.026474
C            -2.800000             0.000000             0.019066
C            -3.500000            -1.212436             0.044930
C            -2.800000            -2.424871             0.076866
C            -1.400000            -2.424871             0.062794
H            -3.350000             0.952628             0.031470
H            -4.600000            -1.212436             0.029204
H            -3.350000            -3.377499             0.007824
C            -0.700000            -3.637307             0.017194
C             0.700000            -3.637307             0.072128
H            -1.250000            -4.589935             0.008945
C             1.400000            -4.849742             0.091781
C             2.800000            -4.849742             0.042968
H             0.850000            -5.802370             0.007972
C             3.500000            -6.062178             0.057214
C             4.900000            -6.062178             0.083177
H             2.950000            -7.014806             0.034737
C             5.600000            -7.274613             0.077989
C             7.000000            -7.274613             0.070834
H             5.050000            -8.227241             0.059094
H             7.550000            -8.227241             0.037699
