50
isomero_1_4
B             0.700000             1.212436             0.091131
C            -0.700000             1.212436             0.037622
C            -1.400000             0.000000             0.022876
C            -0.700000            -1.212436             0.042352
C             0.700000            -1.212436             0.027360
N             1.400000            -0.000000             0.044457
H             1.250000             2.165064             0.062752
H            -1.250000             2.165064             0.053464
C             2.800000             0.000000             0.038544
C             1.400000            -2.424871             0.087345
C             2.800000            -2.424871             0.030035
C             3.500000            -1.212436             0.040003
H             3.350000             0.952628             0.051772
C             4.900000            -1.212436             0.006182
C             3.500000            -3.637307             0.023137
C             4.900000            -3.637307             0.011849
C             5.600000            -2.424871             0.009878
H             5.450000            -0.259808             0.089028
C             7.000000            -2.424871             0.003339
C             5.600000            -4.849742             0.083903
C             7.000000            -4.849742             0.050727
C             7.700000            -3.637307             0.011372
H             7.550000            -1.472243             0.049045
C             9.100000            -3.637307             0.059944
C             7.700000            -6.062178             0.009022
C             9.100000            -6.062178             0.097822
C             9.800000            -4.849742             0.065302
H             9.650000            -2.684679             0.046113
H             9.650000            -7.014806             0.086376
H            10.900000            -4.849742             0.026283
C            -2.800000             0.000000             0.082396
C            -3.500000            -1.212436             0.032898
C            -2.800000            -2.424871             0.094130
C            -1.400000            -2.424871             0.024411
H            -3.350000             0.952628             0.095711
H            -4.600000            -1.212436             0.051082
H            -3.350000            -3.377499             0.056458
C            -0.700000            -3.637307             0.099372
C             0.700000            -3.637307             0.077098
H            -1.250000            -4.589935             0.031380
C             1.400000            -4.849742             0.005787
C             2.800000            -4.849742             0.004407
H             0.850000            -5.802370             0.081294
C             3.500000            -6.062178             0.041207
C             4.900000            -6.062178             0.038416
H             2.950000            -7.014806             0.052313
C             5.600000            -7.274613             0.089215
C             7.000000            -7.274613             0.040592
H             5.050000            -8.227241             0.060439
H             7.550000            -8.227241             0.009480
