50
isomero_5_10
C             0.700000             1.212436             0.079134
C            -0.700000             1.212436             0.065661
B            -1.400000             0.000000             0.054367
N            -0.700000            -1.212436             0.038668
C             0.700000            -1.212436             0.082223
C             1.400000            -0.000000             0.059533
H             1.250000             2.165064             0.078164
H            -1.250000             2.165064             0.098767
C             2.800000             0.000000             0.078825
C             1.400000            -2.424871             0.085292
C             2.800000            -2.424871             0.048561
C             3.500000            -1.212436             0.087376
H             3.350000             0.952628             0.033385
C             4.900000            -1.212436             0.020532
C             3.500000            -3.637307             0.049436
C             4.900000            -3.637307             0.003121
C             5.600000            -2.424871             0.082757
H             5.450000            -0.259808             0.026426
C             7.000000            -2.424871             0.067750
C             5.600000            -4.849742             0.079386
C             7.000000            -4.849742             0.068184
C             7.700000            -3.637307             0.065076
H             7.550000            -1.472243             0.023734
C             9.100000            -3.637307             0.047740
C             7.700000            -6.062178             0.093642
C             9.100000            -6.062178             0.024110
C             9.800000            -4.849742             0.020911
H             9.650000            -2.684679             0.027247
H             9.650000            -7.014806             0.077582
H            10.900000            -4.849742             0.033141
C            -2.800000             0.000000             0.060307
C            -3.500000            -1.212436             0.018401
C            -2.800000            -2.424871             0.008746
C            -1.400000            -2.424871             0.030892
H            -3.350000             0.952628             0.023088
H            -4.600000            -1.212436             0.090919
H            -3.350000            -3.377499             0.093688
C            -0.700000            -3.637307             0.003188
C             0.700000            -3.637307             0.059365
H            -1.250000            -4.589935             0.004382
C             1.400000            -4.849742             0.042490
C             2.800000            -4.849742             0.052158
H             0.850000            -5.802370             0.084034
C             3.500000            -6.062178             0.062503
C             4.900000            -6.062178             0.025520
H             2.950000            -7.014806             0.090469
C             5.600000            -7.274613             0.076730
C             7.000000            -7.274613             0.056267
H             5.050000            -8.227241             0.089715
H             7.550000            -8.227241             0.036808
