50
isomero_6_11
C             0.700000             1.212436             0.026686
C            -0.700000             1.212436             0.089018
C            -1.400000             0.000000             0.036610
C            -0.700000            -1.212436             0.015002
C             0.700000            -1.212436             0.094633
C             1.400000            -0.000000             0.065084
H             1.250000             2.165064             0.098221
H            -1.250000             2.165064             0.019383
C             2.800000             0.000000             0.082874
C             1.400000            -2.424871             0.049380
C             2.800000            -2.424871             0.059078
C             3.500000            -1.212436             0.004489
H             3.350000             0.952628             0.056446
C             4.900000            -1.212436             0.063354
C             3.500000            -3.637307             0.049810
C             4.900000            -3.637307             0.005962
C             5.600000            -2.424871             0.051516
H             5.450000            -0.259808             0.005319
C             7.000000            -2.424871             0.084363
C             5.600000            -4.849742             0.059467
C             7.000000            -4.849742             0.069102
C             7.700000            -3.637307             0.064723
H             7.550000            -1.472243             0.062344
C             9.100000            -3.637307             0.095386
C             7.700000            -6.062178             0.017694
C             9.100000            -6.062178             0.047491
C             9.800000            -4.849742             0.084240
H             9.650000            -2.684679             0.049696
H             9.650000            -7.014806             0.076240
H            10.900000            -4.849742             0.017988
B            -2.800000             0.000000             0.069162
N            -3.500000            -1.212436             0.091442
C            -2.800000            -2.424871             0.016266
C            -1.400000            -2.424871             0.042810
H            -3.350000             0.952628             0.004185
H            -4.600000            -1.212436             0.022575
H            -3.350000            -3.377499             0.066615
C            -0.700000            -3.637307             0.087134
C             0.700000            -3.637307             0.034473
H            -1.250000            -4.589935             0.002725
C             1.400000            -4.849742             0.090528
C             2.800000            -4.849742             0.047106
H             0.850000            -5.802370             0.091046
C             3.500000            -6.062178             0.032798
C             4.900000            -6.062178             0.069110
H             2.950000            -7.014806             0.001745
C             5.600000            -7.274613             0.051235
C             7.000000            -7.274613             0.033181
H             5.050000            -8.227241             0.033611
H             7.550000            -8.227241             0.095335
