50
isomero_4_3
C             0.700000             1.212436             0.003688
C            -0.700000             1.212436             0.027272
C            -1.400000             0.000000             0.023013
C            -0.700000            -1.212436             0.035854
C             0.700000            -1.212436             0.013434
B             1.400000            -0.000000             0.099859
H             1.250000             2.165064             0.051352
H            -1.250000             2.165064             0.038785
N             2.800000             0.000000             0.024985
C             1.400000            -2.424871             0.036475
C             2.800000            -2.424871             0.039906
C             3.500000            -1.212436             0.092630
H             3.350000             0.952628             0.049547
C             4.900000            -1.212436             0.060919
C             3.500000            -3.637307             0.000481
C             4.900000            -3.637307             0.058773
C             5.600000            -2.424871             0.077746
H             5.450000            -0.259808             0.065718
C             7.000000            -2.424871             0.052831
C             5.600000            -4.849742             0.082577
C             7.000000            -4.849742             0.096243
C             7.700000            -3.637307             0.031374
H             7.550000            -1.472243             0.079709
C             9.100000            -3.637307             0.028518
C             7.700000            -6.062178             0.001489
C             9.100000            -6.062178             0.009415
C             9.800000            -4.849742             0.032872
H             9.650000            -2.684679             0.030557
H             9.650000            -7.014806             0.001802
H            10.900000            -4.849742             0.016221
C            -2.800000             0.000000             0.044399
C            -3.500000            -1.212436             0.076677
C            -2.800000            -2.424871             0.068126
C            -1.400000            -2.424871             0.071454
H            -3.350000             0.952628             0.045978
H            -4.600000            -1.212436             0.091927
H            -3.350000            -3.377499             0.098894
C            -0.700000            -3.637307             0.093260
C             0.700000            -3.637307             0.046152
H            -1.250000            -4.589935             0.090492
C             1.400000            -4.849742             0.038645
C             2.800000            -4.849742             0.060302
H             0.850000            -5.802370             0.056032
C             3.500000            -6.062178             0.084584
C             4.900000            -6.062178             0.028480
H             2.950000            -7.014806             0.066332
C             5.600000            -7.274613             0.060226
C             7.000000            -7.274613             0.065646
H             5.050000            -8.227241             0.030993
H             7.550000            -8.227241             0.033164
