50
isomero_20_21
C             0.700000             1.212436             0.056983
C            -0.700000             1.212436             0.000704
C            -1.400000             0.000000             0.089247
C            -0.700000            -1.212436             0.083319
C             0.700000            -1.212436             0.077517
C             1.400000            -0.000000             0.078814
H             1.250000             2.165064             0.037363
H            -1.250000             2.165064             0.015231
C             2.800000             0.000000             0.035226
C             1.400000            -2.424871             0.064510
C             2.800000            -2.424871             0.093194
C             3.500000            -1.212436             0.009332
H             3.350000             0.952628             0.073878
C             4.900000            -1.212436             0.005527
N             3.500000            -3.637307             0.075716
B             4.900000            -3.637307             0.046349
C             5.600000            -2.424871             0.004500
H             5.450000            -0.259808             0.084203
C             7.000000            -2.424871             0.016471
C             5.600000            -4.849742             0.011507
C             7.000000            -4.849742             0.027156
C             7.700000            -3.637307             0.031439
H             7.550000            -1.472243             0.060609
C             9.100000            -3.637307             0.067747
C             7.700000            -6.062178             0.098764
C             9.100000            -6.062178             0.099326
C             9.800000            -4.849742             0.075754
H             9.650000            -2.684679             0.027506
H             9.650000            -7.014806             0.095401
H            10.900000            -4.849742             0.041108
C            -2.800000             0.000000             0.021662
C            -3.500000            -1.212436             0.062913
C            -2.800000            -2.424871             0.001487
C            -1.400000            -2.424871             0.004330
H            -3.350000             0.952628             0.018026
H            -4.600000            -1.212436             0.020047
H            -3.350000            -3.377499             0.071936
C            -0.700000            -3.637307             0.044287
C             0.700000            -3.637307             0.084549
H            -1.250000            -4.589935             0.038979
C             1.400000            -4.849742             0.083755
C             2.800000            -4.849742             0.074842
H             0.850000            -5.802370             0.058386
C             3.500000            -6.062178             0.016057
C             4.900000            -6.062178             0.052884
H             2.950000            -7.014806             0.046267
C             5.600000            -7.274613             0.037954
C             7.000000            -7.274613             0.009323
H             5.050000            -8.227241             0.025915
H             7.550000            -8.227241             0.033584
