50
isomero_10_5
C             0.700000             1.212436             0.014162
C            -0.700000             1.212436             0.048281
N            -1.400000             0.000000             0.058062
B            -0.700000            -1.212436             0.029299
C             0.700000            -1.212436             0.043887
C             1.400000            -0.000000             0.039827
H             1.250000             2.165064             0.013731
H            -1.250000             2.165064             0.095276
C             2.800000             0.000000             0.036004
C             1.400000            -2.424871             0.083698
C             2.800000            -2.424871             0.004134
C             3.500000            -1.212436             0.042383
H             3.350000             0.952628             0.007564
C             4.900000            -1.212436             0.031381
C             3.500000            -3.637307             0.094598
C             4.900000            -3.637307             0.085450
C             5.600000            -2.424871             0.017353
H             5.450000            -0.259808             0.053588
C             7.000000            -2.424871             0.029489
C             5.600000            -4.849742             0.090287
C             7.000000            -4.849742             0.008139
C             7.700000            -3.637307             0.078747
H             7.550000            -1.472243             0.017441
C             9.100000            -3.637307             0.071999
C             7.700000            -6.062178             0.023201
C             9.100000            -6.062178             0.020714
C             9.800000            -4.849742             0.021613
H             9.650000            -2.684679             0.097667
H             9.650000            -7.014806             0.038185
H            10.900000            -4.849742             0.063529
C            -2.800000             0.000000             0.004656
C            -3.500000            -1.212436             0.023207
C            -2.800000            -2.424871             0.087484
C            -1.400000            -2.424871             0.046014
H            -3.350000             0.952628             0.000306
H            -4.600000            -1.212436             0.046494
H            -3.350000            -3.377499             0.082407
C            -0.700000            -3.637307             0.087189
C             0.700000            -3.637307             0.030107
H            -1.250000            -4.589935             0.023601
C             1.400000            -4.849742             0.083158
C             2.800000            -4.849742             0.043775
H             0.850000            -5.802370             0.050709
C             3.500000            -6.062178             0.018547
C             4.900000            -6.062178             0.015150
H             2.950000            -7.014806             0.090681
C             5.600000            -7.274613             0.099275
C             7.000000            -7.274613             0.039008
H             5.050000            -8.227241             0.082681
H             7.550000            -8.227241             0.095406
