50
isomero_20_26
C             0.700000             1.212436             0.037511
C            -0.700000             1.212436             0.014626
C            -1.400000             0.000000             0.031677
C            -0.700000            -1.212436             0.028123
C             0.700000            -1.212436             0.082012
C             1.400000            -0.000000             0.034209
H             1.250000             2.165064             0.087200
H            -1.250000             2.165064             0.026803
C             2.800000             0.000000             0.077543
C             1.400000            -2.424871             0.060921
C             2.800000            -2.424871             0.001797
C             3.500000            -1.212436             0.070151
H             3.350000             0.952628             0.001575
C             4.900000            -1.212436             0.068389
C             3.500000            -3.637307             0.087790
B             4.900000            -3.637307             0.043181
C             5.600000            -2.424871             0.063134
H             5.450000            -0.259808             0.058604
C             7.000000            -2.424871             0.022741
N             5.600000            -4.849742             0.078465
C             7.000000            -4.849742             0.028764
C             7.700000            -3.637307             0.092438
H             7.550000            -1.472243             0.029848
C             9.100000            -3.637307             0.053630
C             7.700000            -6.062178             0.033365
C             9.100000            -6.062178             0.023729
C             9.800000            -4.849742             0.054524
H             9.650000            -2.684679             0.010769
H             9.650000            -7.014806             0.013716
H            10.900000            -4.849742             0.009443
C            -2.800000             0.000000             0.031088
C            -3.500000            -1.212436             0.081264
C            -2.800000            -2.424871             0.051356
C            -1.400000            -2.424871             0.086648
H            -3.350000             0.952628             0.098049
H            -4.600000            -1.212436             0.032665
H            -3.350000            -3.377499             0.021962
C            -0.700000            -3.637307             0.051822
C             0.700000            -3.637307             0.035301
H            -1.250000            -4.589935             0.085948
C             1.400000            -4.849742             0.026002
C             2.800000            -4.849742             0.084372
H             0.850000            -5.802370             0.058280
C             3.500000            -6.062178             0.071941
C             4.900000            -6.062178             0.034352
H             2.950000            -7.014806             0.000927
C             5.600000            -7.274613             0.019245
C             7.000000            -7.274613             0.050739
H             5.050000            -8.227241             0.002424
H             7.550000            -8.227241             0.055004
