50
isomero_5_2
C             0.700000             1.212436             0.037039
N            -0.700000             1.212436             0.082456
B            -1.400000             0.000000             0.053754
C            -0.700000            -1.212436             0.081752
C             0.700000            -1.212436             0.046038
C             1.400000            -0.000000             0.001403
H             1.250000             2.165064             0.000498
H            -1.250000             2.165064             0.016623
C             2.800000             0.000000             0.036594
C             1.400000            -2.424871             0.071821
C             2.800000            -2.424871             0.015942
C             3.500000            -1.212436             0.027877
H             3.350000             0.952628             0.064494
C             4.900000            -1.212436             0.028720
C             3.500000            -3.637307             0.032193
C             4.900000            -3.637307             0.015542
C             5.600000            -2.424871             0.038766
H             5.450000            -0.259808             0.089573
C             7.000000            -2.424871             0.088777
C             5.600000            -4.849742             0.039361
C             7.000000            -4.849742             0.067546
C             7.700000            -3.637307             0.025221
H             7.550000            -1.472243             0.094999
C             9.100000            -3.637307             0.062468
C             7.700000            -6.062178             0.020695
C             9.100000            -6.062178             0.010966
C             9.800000            -4.849742             0.056585
H             9.650000            -2.684679             0.027433
H             9.650000            -7.014806             0.007117
H            10.900000            -4.849742             0.015845
C            -2.800000             0.000000             0.004952
C            -3.500000            -1.212436             0.068088
C            -2.800000            -2.424871             0.078176
C            -1.400000            -2.424871             0.080737
H            -3.350000             0.952628             0.026505
H            -4.600000            -1.212436             0.089590
H            -3.350000            -3.377499             0.060799
C            -0.700000            -3.637307             0.001440
C             0.700000            -3.637307             0.034403
H            -1.250000            -4.589935             0.053366
C             1.400000            -4.849742             0.062776
C             2.800000            -4.849742             0.044674
H             0.850000            -5.802370             0.081111
C             3.500000            -6.062178             0.014483
C             4.900000            -6.062178             0.097483
H             2.950000            -7.014806             0.083376
C             5.600000            -7.274613             0.034010
C             7.000000            -7.274613             0.061624
H             5.050000            -8.227241             0.030376
H             7.550000            -8.227241             0.008922
