50
isomero_2_1
N             0.700000             1.212436             0.033598
B            -0.700000             1.212436             0.014484
C            -1.400000             0.000000             0.024488
C            -0.700000            -1.212436             0.037897
C             0.700000            -1.212436             0.027032
C             1.400000            -0.000000             0.021560
H             1.250000             2.165064             0.063373
H            -1.250000             2.165064             0.079972
C             2.800000             0.000000             0.020851
C             1.400000            -2.424871             0.089626
C             2.800000            -2.424871             0.074571
C             3.500000            -1.212436             0.053639
H             3.350000             0.952628             0.096997
C             4.900000            -1.212436             0.056488
C             3.500000            -3.637307             0.021769
C             4.900000            -3.637307             0.085776
C             5.600000            -2.424871             0.086200
H             5.450000            -0.259808             0.031330
C             7.000000            -2.424871             0.032698
C             5.600000            -4.849742             0.084001
C             7.000000            -4.849742             0.049253
C             7.700000            -3.637307             0.005190
H             7.550000            -1.472243             0.077802
C             9.100000            -3.637307             0.042667
C             7.700000            -6.062178             0.027996
C             9.100000            -6.062178             0.033351
C             9.800000            -4.849742             0.036694
H             9.650000            -2.684679             0.079479
H             9.650000            -7.014806             0.003869
H            10.900000            -4.849742             0.072667
C            -2.800000             0.000000             0.087268
C            -3.500000            -1.212436             0.028581
C            -2.800000            -2.424871             0.065685
C            -1.400000            -2.424871             0.023189
H            -3.350000             0.952628             0.062195
H            -4.600000            -1.212436             0.007512
H            -3.350000            -3.377499             0.096676
C            -0.700000            -3.637307             0.060997
C             0.700000            -3.637307             0.038372
H            -1.250000            -4.589935             0.003057
C             1.400000            -4.849742             0.085757
C             2.800000            -4.849742             0.060354
H             0.850000            -5.802370             0.084784
C             3.500000            -6.062178             0.050462
C             4.900000            -6.062178             0.000791
H             2.950000            -7.014806             0.091907
C             5.600000            -7.274613             0.041070
C             7.000000            -7.274613             0.073237
H             5.050000            -8.227241             0.015111
H             7.550000            -8.227241             0.081523
