50
isomero_24_18
C             0.700000             1.212436             0.027618
C            -0.700000             1.212436             0.069624
C            -1.400000             0.000000             0.088135
C            -0.700000            -1.212436             0.002468
C             0.700000            -1.212436             0.034121
C             1.400000            -0.000000             0.042141
H             1.250000             2.165064             0.008001
H            -1.250000             2.165064             0.007935
C             2.800000             0.000000             0.007238
C             1.400000            -2.424871             0.090034
C             2.800000            -2.424871             0.096931
C             3.500000            -1.212436             0.039131
H             3.350000             0.952628             0.031359
C             4.900000            -1.212436             0.055331
C             3.500000            -3.637307             0.079205
C             4.900000            -3.637307             0.079831
C             5.600000            -2.424871             0.086326
H             5.450000            -0.259808             0.079796
C             7.000000            -2.424871             0.000638
C             5.600000            -4.849742             0.091990
C             7.000000            -4.849742             0.001796
C             7.700000            -3.637307             0.002942
H             7.550000            -1.472243             0.071145
N             9.100000            -3.637307             0.053841
C             7.700000            -6.062178             0.052459
C             9.100000            -6.062178             0.050224
B             9.800000            -4.849742             0.006567
H             9.650000            -2.684679             0.023004
H             9.650000            -7.014806             0.011704
H            10.900000            -4.849742             0.098977
C            -2.800000             0.000000             0.007052
C            -3.500000            -1.212436             0.006002
C            -2.800000            -2.424871             0.066158
C            -1.400000            -2.424871             0.034406
H            -3.350000             0.952628             0.012851
H            -4.600000            -1.212436             0.063714
H            -3.350000            -3.377499             0.074649
C            -0.700000            -3.637307             0.080527
C             0.700000            -3.637307             0.026903
H            -1.250000            -4.589935             0.043398
C             1.400000            -4.849742             0.040181
C             2.800000            -4.849742             0.060814
H             0.850000            -5.802370             0.077009
C             3.500000            -6.062178             0.094112
C             4.900000            -6.062178             0.013146
H             2.950000            -7.014806             0.025572
C             5.600000            -7.274613             0.037831
C             7.000000            -7.274613             0.099374
H             5.050000            -8.227241             0.034095
H             7.550000            -8.227241             0.089955
