34
isomero_8_13
C             0.700000             1.212436             0.031060
C            -0.700000             1.212436             0.000356
C            -1.400000             0.000000             0.081524
C            -0.700000            -1.212436             0.063842
C             0.700000            -1.212436             0.044834
C             1.400000            -0.000000             0.024409
H             1.250000             2.165064             0.080339
H            -1.250000             2.165064             0.082397
C             2.800000             0.000000             0.085219
C             1.400000            -2.424871             0.046725
N             2.800000            -2.424871             0.097070
B             3.500000            -1.212436             0.084124
H             3.350000             0.952628             0.007855
C             4.900000            -1.212436             0.023760
C             3.500000            -3.637307             0.081757
C             4.900000            -3.637307             0.040583
C             5.600000            -2.424871             0.046631
H             5.450000            -0.259808             0.095154
H             5.450000            -4.589935             0.096501
H             6.700000            -2.424871             0.076528
C            -2.800000             0.000000             0.057453
C            -3.500000            -1.212436             0.091593
C            -2.800000            -2.424871             0.049543
C            -1.400000            -2.424871             0.016601
H            -3.350000             0.952628             0.032600
H            -4.600000            -1.212436             0.029644
H            -3.350000            -3.377499             0.055830
C            -0.700000            -3.637307             0.006748
C             0.700000            -3.637307             0.006898
H            -1.250000            -4.589935             0.016678
C             1.400000            -4.849742             0.094744
C             2.800000            -4.849742             0.081109
H             0.850000            -5.802370             0.071046
H             3.350000            -5.802370             0.097025
