34
isomero_12_17
C             0.700000             1.212436             0.010421
C            -0.700000             1.212436             0.079258
C            -1.400000             0.000000             0.078273
C            -0.700000            -1.212436             0.053240
C             0.700000            -1.212436             0.025335
C             1.400000            -0.000000             0.007095
H             1.250000             2.165064             0.062580
H            -1.250000             2.165064             0.002468
C             2.800000             0.000000             0.006204
C             1.400000            -2.424871             0.012961
C             2.800000            -2.424871             0.045061
C             3.500000            -1.212436             0.067234
H             3.350000             0.952628             0.085611
C             4.900000            -1.212436             0.049845
C             3.500000            -3.637307             0.004878
N             4.900000            -3.637307             0.031383
B             5.600000            -2.424871             0.064163
H             5.450000            -0.259808             0.078639
H             5.450000            -4.589935             0.028915
H             6.700000            -2.424871             0.049787
C            -2.800000             0.000000             0.081843
C            -3.500000            -1.212436             0.059513
C            -2.800000            -2.424871             0.053642
C            -1.400000            -2.424871             0.033087
H            -3.350000             0.952628             0.041169
H            -4.600000            -1.212436             0.079401
H            -3.350000            -3.377499             0.034321
C            -0.700000            -3.637307             0.046261
C             0.700000            -3.637307             0.036782
H            -1.250000            -4.589935             0.067957
C             1.400000            -4.849742             0.056778
C             2.800000            -4.849742             0.065178
H             0.850000            -5.802370             0.049111
H             3.350000            -5.802370             0.039846
