34
isomero_10_9
C             0.700000             1.212436             0.034600
C            -0.700000             1.212436             0.029024
C            -1.400000             0.000000             0.088670
B            -0.700000            -1.212436             0.021003
N             0.700000            -1.212436             0.013088
C             1.400000            -0.000000             0.052052
H             1.250000             2.165064             0.090546
H            -1.250000             2.165064             0.040253
C             2.800000             0.000000             0.021576
C             1.400000            -2.424871             0.007874
C             2.800000            -2.424871             0.093306
C             3.500000            -1.212436             0.060287
H             3.350000             0.952628             0.037749
C             4.900000            -1.212436             0.066493
C             3.500000            -3.637307             0.079219
C             4.900000            -3.637307             0.033349
C             5.600000            -2.424871             0.069266
H             5.450000            -0.259808             0.020382
H             5.450000            -4.589935             0.095871
H             6.700000            -2.424871             0.071183
C            -2.800000             0.000000             0.016691
C            -3.500000            -1.212436             0.044278
C            -2.800000            -2.424871             0.063299
C            -1.400000            -2.424871             0.092997
H            -3.350000             0.952628             0.052933
H            -4.600000            -1.212436             0.062647
H            -3.350000            -3.377499             0.068082
C            -0.700000            -3.637307             0.092320
C             0.700000            -3.637307             0.015283
H            -1.250000            -4.589935             0.040572
C             1.400000            -4.849742             0.031248
C             2.800000            -4.849742             0.069390
H             0.850000            -5.802370             0.089069
H             3.350000            -5.802370             0.049067
