34
isomero_6_11
C             0.700000             1.212436             0.028683
C            -0.700000             1.212436             0.070619
C            -1.400000             0.000000             0.053521
C            -0.700000            -1.212436             0.019321
C             0.700000            -1.212436             0.068944
C             1.400000            -0.000000             0.005046
H             1.250000             2.165064             0.018443
H            -1.250000             2.165064             0.004566
C             2.800000             0.000000             0.088504
C             1.400000            -2.424871             0.083979
C             2.800000            -2.424871             0.011816
C             3.500000            -1.212436             0.041041
H             3.350000             0.952628             0.012023
C             4.900000            -1.212436             0.057209
C             3.500000            -3.637307             0.094939
C             4.900000            -3.637307             0.025639
C             5.600000            -2.424871             0.098987
H             5.450000            -0.259808             0.034981
H             5.450000            -4.589935             0.020852
H             6.700000            -2.424871             0.066583
B            -2.800000             0.000000             0.097334
N            -3.500000            -1.212436             0.062270
C            -2.800000            -2.424871             0.006354
C            -1.400000            -2.424871             0.037351
H            -3.350000             0.952628             0.016625
H            -4.600000            -1.212436             0.023128
H            -3.350000            -3.377499             0.005221
C            -0.700000            -3.637307             0.090176
C             0.700000            -3.637307             0.079329
H            -1.250000            -4.589935             0.037301
C             1.400000            -4.849742             0.083205
C             2.800000            -4.849742             0.075383
H             0.850000            -5.802370             0.062186
H             3.350000            -5.802370             0.039409
