34
isomero_3_8
C             0.700000             1.212436             0.065392
C            -0.700000             1.212436             0.065773
C            -1.400000             0.000000             0.016102
C            -0.700000            -1.212436             0.043238
C             0.700000            -1.212436             0.050509
C             1.400000            -0.000000             0.037533
H             1.250000             2.165064             0.048037
H            -1.250000             2.165064             0.034242
B             2.800000             0.000000             0.077715
C             1.400000            -2.424871             0.038394
C             2.800000            -2.424871             0.071156
N             3.500000            -1.212436             0.048093
H             3.350000             0.952628             0.072918
C             4.900000            -1.212436             0.093756
C             3.500000            -3.637307             0.051725
C             4.900000            -3.637307             0.090307
C             5.600000            -2.424871             0.021819
H             5.450000            -0.259808             0.087322
H             5.450000            -4.589935             0.008269
H             6.700000            -2.424871             0.046540
C            -2.800000             0.000000             0.002193
C            -3.500000            -1.212436             0.080828
C            -2.800000            -2.424871             0.017921
C            -1.400000            -2.424871             0.016539
H            -3.350000             0.952628             0.018160
H            -4.600000            -1.212436             0.069144
H            -3.350000            -3.377499             0.021376
C            -0.700000            -3.637307             0.029810
C             0.700000            -3.637307             0.076834
H            -1.250000            -4.589935             0.050115
C             1.400000            -4.849742             0.090946
C             2.800000            -4.849742             0.005785
H             0.850000            -5.802370             0.043675
H             3.350000            -5.802370             0.057225
