34
isomero_10_5
C             0.700000             1.212436             0.047885
C            -0.700000             1.212436             0.030812
N            -1.400000             0.000000             0.074444
B            -0.700000            -1.212436             0.083935
C             0.700000            -1.212436             0.026243
C             1.400000            -0.000000             0.051424
H             1.250000             2.165064             0.044677
H            -1.250000             2.165064             0.034121
C             2.800000             0.000000             0.083914
C             1.400000            -2.424871             0.098249
C             2.800000            -2.424871             0.062646
C             3.500000            -1.212436             0.018128
H             3.350000             0.952628             0.012302
C             4.900000            -1.212436             0.057997
C             3.500000            -3.637307             0.032854
C             4.900000            -3.637307             0.026819
C             5.600000            -2.424871             0.055024
H             5.450000            -0.259808             0.018052
H             5.450000            -4.589935             0.067849
H             6.700000            -2.424871             0.005569
C            -2.800000             0.000000             0.003406
C            -3.500000            -1.212436             0.028652
C            -2.800000            -2.424871             0.007739
C            -1.400000            -2.424871             0.090057
H            -3.350000             0.952628             0.084661
H            -4.600000            -1.212436             0.039570
H            -3.350000            -3.377499             0.016922
C            -0.700000            -3.637307             0.043045
C             0.700000            -3.637307             0.041622
H            -1.250000            -4.589935             0.072876
C             1.400000            -4.849742             0.040647
C             2.800000            -4.849742             0.095181
H             0.850000            -5.802370             0.091199
H             3.350000            -5.802370             0.095141
