30
isomero_4_3
C             0.700000             1.212436             0.078811
C            -0.700000             1.212436             0.078030
C            -1.400000             0.000000             0.066851
C            -0.700000            -1.212436             0.013350
C             0.700000            -1.212436             0.002156
B             1.400000            -0.000000             0.055984
H             1.250000             2.165064             0.030082
H            -1.250000             2.165064             0.093941
H            -2.500000             0.000000             0.098090
H            -1.250000            -2.165064             0.028662
N             2.800000             0.000000             0.080082
C             1.400000            -2.424871             0.089611
C             2.800000            -2.424871             0.059753
C             3.500000            -1.212436             0.088402
H             3.350000             0.952628             0.094373
H             0.850000            -3.377499             0.054916
C             4.900000            -1.212436             0.072839
C             3.500000            -3.637307             0.057676
C             4.900000            -3.637307             0.002586
C             5.600000            -2.424871             0.044653
H             5.450000            -0.259808             0.064630
H             2.950000            -4.589935             0.052120
C             7.000000            -2.424871             0.037231
C             5.600000            -4.849742             0.093713
C             7.000000            -4.849742             0.082953
C             7.700000            -3.637307             0.084909
H             7.550000            -1.472243             0.037253
H             5.050000            -5.802370             0.059318
H             7.550000            -5.802370             0.087255
H             8.800000            -3.637307             0.093350
