30
isomero_4_1
N             0.700000             1.212436             0.054491
C            -0.700000             1.212436             0.068622
C            -1.400000             0.000000             0.089363
C            -0.700000            -1.212436             0.005479
C             0.700000            -1.212436             0.030366
B             1.400000            -0.000000             0.004619
H             1.250000             2.165064             0.019548
H            -1.250000             2.165064             0.072017
H            -2.500000             0.000000             0.072175
H            -1.250000            -2.165064             0.087780
C             2.800000             0.000000             0.058243
C             1.400000            -2.424871             0.007068
C             2.800000            -2.424871             0.092274
C             3.500000            -1.212436             0.080037
H             3.350000             0.952628             0.028595
H             0.850000            -3.377499             0.054366
C             4.900000            -1.212436             0.098478
C             3.500000            -3.637307             0.071568
C             4.900000            -3.637307             0.083897
C             5.600000            -2.424871             0.043326
H             5.450000            -0.259808             0.047062
H             2.950000            -4.589935             0.056071
C             7.000000            -2.424871             0.026909
C             5.600000            -4.849742             0.074902
C             7.000000            -4.849742             0.050389
C             7.700000            -3.637307             0.064681
H             7.550000            -1.472243             0.030775
H             5.050000            -5.802370             0.013872
H             7.550000            -5.802370             0.047557
H             8.800000            -3.637307             0.036246
