30
isomero_7_12
C             0.700000             1.212436             0.054655
C            -0.700000             1.212436             0.056192
C            -1.400000             0.000000             0.039582
C            -0.700000            -1.212436             0.039813
C             0.700000            -1.212436             0.051537
C             1.400000            -0.000000             0.065753
H             1.250000             2.165064             0.095092
H            -1.250000             2.165064             0.072235
H            -2.500000             0.000000             0.040008
H            -1.250000            -2.165064             0.083187
C             2.800000             0.000000             0.013434
C             1.400000            -2.424871             0.006047
N             2.800000            -2.424871             0.008425
B             3.500000            -1.212436             0.016390
H             3.350000             0.952628             0.032422
H             0.850000            -3.377499             0.030173
C             4.900000            -1.212436             0.001168
C             3.500000            -3.637307             0.053991
C             4.900000            -3.637307             0.009537
C             5.600000            -2.424871             0.014651
H             5.450000            -0.259808             0.063114
H             2.950000            -4.589935             0.085932
C             7.000000            -2.424871             0.097422
C             5.600000            -4.849742             0.057084
C             7.000000            -4.849742             0.099685
C             7.700000            -3.637307             0.055354
H             7.550000            -1.472243             0.051546
H             5.050000            -5.802370             0.033068
H             7.550000            -5.802370             0.043000
H             8.800000            -3.637307             0.049181
