24
isomero_2_1
N             0.700000             1.212436             0.016113
B            -0.700000             1.212436             0.075811
C            -1.400000             0.000000             0.087111
C            -0.700000            -1.212436             0.035078
C             0.700000            -1.212436             0.068554
C             1.400000            -0.000000             0.029415
H             1.250000             2.165064             0.053063
H            -1.250000             2.165064             0.083242
H            -2.500000             0.000000             0.059749
H            -1.250000            -2.165064             0.033531
C             2.800000             0.000000             0.029923
C             1.400000            -2.424871             0.045259
C             2.800000            -2.424871             0.042265
C             3.500000            -1.212436             0.035961
H             3.350000             0.952628             0.055832
H             0.850000            -3.377499             0.074255
C             4.900000            -1.212436             0.042433
C             3.500000            -3.637307             0.042936
C             4.900000            -3.637307             0.012487
C             5.600000            -2.424871             0.002443
H             5.450000            -0.259808             0.029019
H             2.950000            -4.589935             0.031752
H             5.450000            -4.589935             0.065369
H             6.700000            -2.424871             0.095694
