24
isomero_1_2
B             0.700000             1.212436             0.005940
N            -0.700000             1.212436             0.031581
C            -1.400000             0.000000             0.077272
C            -0.700000            -1.212436             0.069643
C             0.700000            -1.212436             0.012533
C             1.400000            -0.000000             0.013015
H             1.250000             2.165064             0.009235
H            -1.250000             2.165064             0.000782
H            -2.500000             0.000000             0.042311
H            -1.250000            -2.165064             0.065557
C             2.800000             0.000000             0.072292
C             1.400000            -2.424871             0.053121
C             2.800000            -2.424871             0.010882
C             3.500000            -1.212436             0.063177
H             3.350000             0.952628             0.012650
H             0.850000            -3.377499             0.013430
C             4.900000            -1.212436             0.009859
C             3.500000            -3.637307             0.014203
C             4.900000            -3.637307             0.016825
C             5.600000            -2.424871             0.019625
H             5.450000            -0.259808             0.031748
H             2.950000            -4.589935             0.031643
H             5.450000            -4.589935             0.021756
H             6.700000            -2.424871             0.025104
