102
isomero_10_17
C             0.700000             1.212436             0.048364
C            -0.700000             1.212436             0.017228
C            -1.400000             0.000000             0.037537
B            -0.700000            -1.212436             0.078240
C             0.700000            -1.212436             0.023696
C             1.400000            -0.000000             0.077298
H             1.250000             2.165064             0.007646
H            -1.250000             2.165064             0.026685
C             2.800000             0.000000             0.012513
C             1.400000            -2.424871             0.038328
C             2.800000            -2.424871             0.082096
C             3.500000            -1.212436             0.026131
H             3.350000             0.952628             0.008714
C             4.900000            -1.212436             0.003738
C             3.500000            -3.637307             0.038390
C             4.900000            -3.637307             0.070323
C             5.600000            -2.424871             0.084977
H             5.450000            -0.259808             0.081226
C             7.000000            -2.424871             0.002837
C             5.600000            -4.849742             0.063824
C             7.000000            -4.849742             0.093578
C             7.700000            -3.637307             0.051179
H             7.550000            -1.472243             0.017054
C             9.100000            -3.637307             0.063462
C             7.700000            -6.062178             0.069206
C             9.100000            -6.062178             0.097703
C             9.800000            -4.849742             0.079690
H             9.650000            -2.684679             0.041335
C            11.200000            -4.849742             0.076656
C             9.800000            -7.274613             0.037030
C            11.200000            -7.274613             0.096308
C            11.900000            -6.062178             0.053831
H            11.750000            -3.897114             0.035271
C            13.300000            -6.062178             0.076051
C            11.900000            -8.487049             0.098228
C            13.300000            -8.487049             0.038140
C            14.000000            -7.274613             0.097889
H            13.850000            -5.109550             0.008121
H            13.850000            -9.439677             0.040047
H            15.100000            -7.274613             0.017489
C            -2.800000             0.000000             0.048290
C            -3.500000            -1.212436             0.008051
C            -2.800000            -2.424871             0.002627
N            -1.400000            -2.424871             0.056222
H            -3.350000             0.952628             0.041836
C            -0.700000            -3.637307             0.023351
C             0.700000            -3.637307             0.006358
C             1.400000            -4.849742             0.001357
C             2.800000            -4.849742             0.078114
C             3.500000            -6.062178             0.066709
C             4.900000            -6.062178             0.027867
C             5.600000            -7.274613             0.040767
C             7.000000            -7.274613             0.032623
C             7.700000            -8.487049             0.089895
C             9.100000            -8.487049             0.040906
C             9.800000            -9.699485             0.064736
C            11.200000            -9.699485             0.070435
H            11.750000           -10.652112             0.009409
C            -4.900000            -1.212436             0.035023
C            -5.600000            -2.424871             0.070539
C            -4.900000            -3.637307             0.045931
C            -3.500000            -3.637307             0.060680
H            -5.450000            -0.259808             0.021020
C            -2.800000            -4.849742             0.053581
C            -1.400000            -4.849742             0.040198
C            -0.700000            -6.062178             0.031376
C             0.700000            -6.062178             0.037341
C             1.400000            -7.274613             0.004501
C             2.800000            -7.274613             0.011787
C             3.500000            -8.487049             0.001548
C             4.900000            -8.487049             0.036045
C             5.600000            -9.699485             0.069822
C             7.000000            -9.699485             0.072596
C             7.700000           -10.911920             0.025862
C             9.100000           -10.911920             0.083444
H             9.650000           -11.864548             0.050122
C            -7.000000            -2.424871             0.046917
C            -7.700000            -3.637307             0.017344
C            -7.000000            -4.849742             0.015216
C            -5.600000            -4.849742             0.046854
H            -7.550000            -1.472243             0.029927
H            -8.800000            -3.637307             0.057432
H            -7.550000            -5.802370             0.096169
C            -4.900000            -6.062178             0.093653
C            -3.500000            -6.062178             0.073403
H            -5.450000            -7.014806             0.080437
C            -2.800000            -7.274613             0.019572
C            -1.400000            -7.274613             0.049976
H            -3.350000            -8.227241             0.077798
C            -0.700000            -8.487049             0.074979
C             0.700000            -8.487049             0.005680
H            -1.250000            -9.439677             0.070971
C             1.400000            -9.699485             0.004431
C             2.800000            -9.699485             0.019418
H             0.850000           -10.652112             0.050050
C             3.500000           -10.911920             0.011366
C             4.900000           -10.911920             0.052700
H             2.950000           -11.864548             0.026392
C             5.600000           -12.124356             0.060887
C             7.000000           -12.124356             0.047693
H             5.050000           -13.076984             0.069386
H             7.550000           -13.076984             0.042535
