102
isomero_9_4
C             0.700000             1.212436             0.054809
C            -0.700000             1.212436             0.077159
C            -1.400000             0.000000             0.071797
C            -0.700000            -1.212436             0.030313
B             0.700000            -1.212436             0.027498
N             1.400000            -0.000000             0.017613
H             1.250000             2.165064             0.067164
H            -1.250000             2.165064             0.016169
C             2.800000             0.000000             0.028745
C             1.400000            -2.424871             0.044219
C             2.800000            -2.424871             0.059279
C             3.500000            -1.212436             0.010024
H             3.350000             0.952628             0.073953
C             4.900000            -1.212436             0.012958
C             3.500000            -3.637307             0.077969
C             4.900000            -3.637307             0.083091
C             5.600000            -2.424871             0.097464
H             5.450000            -0.259808             0.027362
C             7.000000            -2.424871             0.099402
C             5.600000            -4.849742             0.097396
C             7.000000            -4.849742             0.073398
C             7.700000            -3.637307             0.067222
H             7.550000            -1.472243             0.074901
C             9.100000            -3.637307             0.064623
C             7.700000            -6.062178             0.095468
C             9.100000            -6.062178             0.015235
C             9.800000            -4.849742             0.015781
H             9.650000            -2.684679             0.089603
C            11.200000            -4.849742             0.022498
C             9.800000            -7.274613             0.085845
C            11.200000            -7.274613             0.087365
C            11.900000            -6.062178             0.003526
H            11.750000            -3.897114             0.037158
C            13.300000            -6.062178             0.003711
C            11.900000            -8.487049             0.023620
C            13.300000            -8.487049             0.043303
C            14.000000            -7.274613             0.098738
H            13.850000            -5.109550             0.017731
H            13.850000            -9.439677             0.076004
H            15.100000            -7.274613             0.053463
C            -2.800000             0.000000             0.060436
C            -3.500000            -1.212436             0.015937
C            -2.800000            -2.424871             0.075693
C            -1.400000            -2.424871             0.088960
H            -3.350000             0.952628             0.084587
C            -0.700000            -3.637307             0.030197
C             0.700000            -3.637307             0.032788
C             1.400000            -4.849742             0.015506
C             2.800000            -4.849742             0.008829
C             3.500000            -6.062178             0.011112
C             4.900000            -6.062178             0.083187
C             5.600000            -7.274613             0.065746
C             7.000000            -7.274613             0.072249
C             7.700000            -8.487049             0.063999
C             9.100000            -8.487049             0.046211
C             9.800000            -9.699485             0.019895
C            11.200000            -9.699485             0.009582
H            11.750000           -10.652112             0.032431
C            -4.900000            -1.212436             0.025648
C            -5.600000            -2.424871             0.020514
C            -4.900000            -3.637307             0.043350
C            -3.500000            -3.637307             0.078364
H            -5.450000            -0.259808             0.036919
C            -2.800000            -4.849742             0.018855
C            -1.400000            -4.849742             0.071655
C            -0.700000            -6.062178             0.083249
C             0.700000            -6.062178             0.098435
C             1.400000            -7.274613             0.081124
C             2.800000            -7.274613             0.055031
C             3.500000            -8.487049             0.000858
C             4.900000            -8.487049             0.011249
C             5.600000            -9.699485             0.004088
C             7.000000            -9.699485             0.006846
C             7.700000           -10.911920             0.016773
C             9.100000           -10.911920             0.066589
H             9.650000           -11.864548             0.083967
C            -7.000000            -2.424871             0.071153
C            -7.700000            -3.637307             0.060117
C            -7.000000            -4.849742             0.094864
C            -5.600000            -4.849742             0.075185
H            -7.550000            -1.472243             0.028813
H            -8.800000            -3.637307             0.049333
H            -7.550000            -5.802370             0.031205
C            -4.900000            -6.062178             0.013488
C            -3.500000            -6.062178             0.095444
H            -5.450000            -7.014806             0.076037
C            -2.800000            -7.274613             0.006324
C            -1.400000            -7.274613             0.044469
H            -3.350000            -8.227241             0.079385
C            -0.700000            -8.487049             0.091185
C             0.700000            -8.487049             0.085247
H            -1.250000            -9.439677             0.014856
C             1.400000            -9.699485             0.072549
C             2.800000            -9.699485             0.020765
H             0.850000           -10.652112             0.097569
C             3.500000           -10.911920             0.089524
C             4.900000           -10.911920             0.003424
H             2.950000           -11.864548             0.078510
C             5.600000           -12.124356             0.063065
C             7.000000           -12.124356             0.055848
H             5.050000           -13.076984             0.089203
H             7.550000           -13.076984             0.053446
