102
isomero_2_5
C             0.700000             1.212436             0.085099
B            -0.700000             1.212436             0.020857
N            -1.400000             0.000000             0.066992
C            -0.700000            -1.212436             0.091504
C             0.700000            -1.212436             0.037218
C             1.400000            -0.000000             0.004599
H             1.250000             2.165064             0.046445
H            -1.250000             2.165064             0.070312
C             2.800000             0.000000             0.093110
C             1.400000            -2.424871             0.021853
C             2.800000            -2.424871             0.024283
C             3.500000            -1.212436             0.026832
H             3.350000             0.952628             0.018090
C             4.900000            -1.212436             0.039919
C             3.500000            -3.637307             0.009526
C             4.900000            -3.637307             0.014305
C             5.600000            -2.424871             0.087973
H             5.450000            -0.259808             0.034705
C             7.000000            -2.424871             0.087821
C             5.600000            -4.849742             0.033031
C             7.000000            -4.849742             0.081617
C             7.700000            -3.637307             0.092131
H             7.550000            -1.472243             0.004368
C             9.100000            -3.637307             0.072268
C             7.700000            -6.062178             0.098622
C             9.100000            -6.062178             0.032945
C             9.800000            -4.849742             0.041783
H             9.650000            -2.684679             0.090497
C            11.200000            -4.849742             0.045979
C             9.800000            -7.274613             0.004511
C            11.200000            -7.274613             0.027779
C            11.900000            -6.062178             0.046513
H            11.750000            -3.897114             0.038341
C            13.300000            -6.062178             0.030806
C            11.900000            -8.487049             0.055978
C            13.300000            -8.487049             0.007744
C            14.000000            -7.274613             0.034527
H            13.850000            -5.109550             0.099344
H            13.850000            -9.439677             0.035346
H            15.100000            -7.274613             0.047965
C            -2.800000             0.000000             0.052893
C            -3.500000            -1.212436             0.086302
C            -2.800000            -2.424871             0.050954
C            -1.400000            -2.424871             0.094647
H            -3.350000             0.952628             0.094470
C            -0.700000            -3.637307             0.070191
C             0.700000            -3.637307             0.019831
C             1.400000            -4.849742             0.001144
C             2.800000            -4.849742             0.092026
C             3.500000            -6.062178             0.049695
C             4.900000            -6.062178             0.023504
C             5.600000            -7.274613             0.022433
C             7.000000            -7.274613             0.077200
C             7.700000            -8.487049             0.041950
C             9.100000            -8.487049             0.077117
C             9.800000            -9.699485             0.024933
C            11.200000            -9.699485             0.079805
H            11.750000           -10.652112             0.046577
C            -4.900000            -1.212436             0.010832
C            -5.600000            -2.424871             0.085132
C            -4.900000            -3.637307             0.055775
C            -3.500000            -3.637307             0.088161
H            -5.450000            -0.259808             0.016189
C            -2.800000            -4.849742             0.091736
C            -1.400000            -4.849742             0.066673
C            -0.700000            -6.062178             0.009694
C             0.700000            -6.062178             0.016600
C             1.400000            -7.274613             0.043745
C             2.800000            -7.274613             0.054044
C             3.500000            -8.487049             0.080629
C             4.900000            -8.487049             0.025636
C             5.600000            -9.699485             0.052038
C             7.000000            -9.699485             0.022847
C             7.700000           -10.911920             0.083021
C             9.100000           -10.911920             0.086218
H             9.650000           -11.864548             0.057542
C            -7.000000            -2.424871             0.096145
C            -7.700000            -3.637307             0.039736
C            -7.000000            -4.849742             0.087911
C            -5.600000            -4.849742             0.003652
H            -7.550000            -1.472243             0.030341
H            -8.800000            -3.637307             0.036601
H            -7.550000            -5.802370             0.010012
C            -4.900000            -6.062178             0.014274
C            -3.500000            -6.062178             0.014013
H            -5.450000            -7.014806             0.092371
C            -2.800000            -7.274613             0.075715
C            -1.400000            -7.274613             0.083587
H            -3.350000            -8.227241             0.070445
C            -0.700000            -8.487049             0.071434
C             0.700000            -8.487049             0.095062
H            -1.250000            -9.439677             0.063922
C             1.400000            -9.699485             0.017502
C             2.800000            -9.699485             0.085475
H             0.850000           -10.652112             0.068827
C             3.500000           -10.911920             0.028536
C             4.900000           -10.911920             0.071449
H             2.950000           -11.864548             0.080129
C             5.600000           -12.124356             0.025738
C             7.000000           -12.124356             0.022666
H             5.050000           -13.076984             0.026341
H             7.550000           -13.076984             0.071071
