102
isomero_9_10
C             0.700000             1.212436             0.068609
C            -0.700000             1.212436             0.095363
C            -1.400000             0.000000             0.073159
N            -0.700000            -1.212436             0.033739
B             0.700000            -1.212436             0.031053
C             1.400000            -0.000000             0.020594
H             1.250000             2.165064             0.057801
H            -1.250000             2.165064             0.080835
C             2.800000             0.000000             0.062936
C             1.400000            -2.424871             0.042765
C             2.800000            -2.424871             0.035889
C             3.500000            -1.212436             0.091659
H             3.350000             0.952628             0.015346
C             4.900000            -1.212436             0.032442
C             3.500000            -3.637307             0.020171
C             4.900000            -3.637307             0.084412
C             5.600000            -2.424871             0.046530
H             5.450000            -0.259808             0.095960
C             7.000000            -2.424871             0.001327
C             5.600000            -4.849742             0.012951
C             7.000000            -4.849742             0.091385
C             7.700000            -3.637307             0.019259
H             7.550000            -1.472243             0.043795
C             9.100000            -3.637307             0.032771
C             7.700000            -6.062178             0.075724
C             9.100000            -6.062178             0.019293
C             9.800000            -4.849742             0.071873
H             9.650000            -2.684679             0.021802
C            11.200000            -4.849742             0.063066
C             9.800000            -7.274613             0.055121
C            11.200000            -7.274613             0.010795
C            11.900000            -6.062178             0.064791
H            11.750000            -3.897114             0.093036
C            13.300000            -6.062178             0.051127
C            11.900000            -8.487049             0.045917
C            13.300000            -8.487049             0.016514
C            14.000000            -7.274613             0.068792
H            13.850000            -5.109550             0.038308
H            13.850000            -9.439677             0.057045
H            15.100000            -7.274613             0.022198
C            -2.800000             0.000000             0.053124
C            -3.500000            -1.212436             0.018377
C            -2.800000            -2.424871             0.034456
C            -1.400000            -2.424871             0.098327
H            -3.350000             0.952628             0.041111
C            -0.700000            -3.637307             0.068292
C             0.700000            -3.637307             0.012147
C             1.400000            -4.849742             0.050559
C             2.800000            -4.849742             0.075472
C             3.500000            -6.062178             0.027438
C             4.900000            -6.062178             0.018671
C             5.600000            -7.274613             0.094383
C             7.000000            -7.274613             0.081830
C             7.700000            -8.487049             0.033757
C             9.100000            -8.487049             0.087428
C             9.800000            -9.699485             0.073782
C            11.200000            -9.699485             0.014105
H            11.750000           -10.652112             0.021686
C            -4.900000            -1.212436             0.026929
C            -5.600000            -2.424871             0.098837
C            -4.900000            -3.637307             0.093944
C            -3.500000            -3.637307             0.051871
H            -5.450000            -0.259808             0.087831
C            -2.800000            -4.849742             0.021652
C            -1.400000            -4.849742             0.092220
C            -0.700000            -6.062178             0.090097
C             0.700000            -6.062178             0.012199
C             1.400000            -7.274613             0.065340
C             2.800000            -7.274613             0.050124
C             3.500000            -8.487049             0.090305
C             4.900000            -8.487049             0.079830
C             5.600000            -9.699485             0.015553
C             7.000000            -9.699485             0.007337
C             7.700000           -10.911920             0.014939
C             9.100000           -10.911920             0.069789
H             9.650000           -11.864548             0.074755
C            -7.000000            -2.424871             0.038008
C            -7.700000            -3.637307             0.054468
C            -7.000000            -4.849742             0.031033
C            -5.600000            -4.849742             0.039454
H            -7.550000            -1.472243             0.094778
H            -8.800000            -3.637307             0.061604
H            -7.550000            -5.802370             0.081805
C            -4.900000            -6.062178             0.055907
C            -3.500000            -6.062178             0.028457
H            -5.450000            -7.014806             0.081066
C            -2.800000            -7.274613             0.015389
C            -1.400000            -7.274613             0.087583
H            -3.350000            -8.227241             0.027263
C            -0.700000            -8.487049             0.098024
C             0.700000            -8.487049             0.063135
H            -1.250000            -9.439677             0.020422
C             1.400000            -9.699485             0.053389
C             2.800000            -9.699485             0.079385
H             0.850000           -10.652112             0.064836
C             3.500000           -10.911920             0.075241
C             4.900000           -10.911920             0.004786
H             2.950000           -11.864548             0.023133
C             5.600000           -12.124356             0.003867
C             7.000000           -12.124356             0.010302
H             5.050000           -13.076984             0.038859
H             7.550000           -13.076984             0.002595
