102
isomero_14_7
C             0.700000             1.212436             0.070793
C            -0.700000             1.212436             0.066050
C            -1.400000             0.000000             0.091920
C            -0.700000            -1.212436             0.090025
C             0.700000            -1.212436             0.032323
C             1.400000            -0.000000             0.033300
H             1.250000             2.165064             0.076039
H            -1.250000             2.165064             0.089827
C             2.800000             0.000000             0.067620
C             1.400000            -2.424871             0.030419
C             2.800000            -2.424871             0.003468
C             3.500000            -1.212436             0.016776
H             3.350000             0.952628             0.096848
N             4.900000            -1.212436             0.043136
C             3.500000            -3.637307             0.079095
C             4.900000            -3.637307             0.044363
B             5.600000            -2.424871             0.071851
H             5.450000            -0.259808             0.016052
C             7.000000            -2.424871             0.063417
C             5.600000            -4.849742             0.006919
C             7.000000            -4.849742             0.050552
C             7.700000            -3.637307             0.084139
H             7.550000            -1.472243             0.000189
C             9.100000            -3.637307             0.062657
C             7.700000            -6.062178             0.006432
C             9.100000            -6.062178             0.092990
C             9.800000            -4.849742             0.083312
H             9.650000            -2.684679             0.082135
C            11.200000            -4.849742             0.076479
C             9.800000            -7.274613             0.069746
C            11.200000            -7.274613             0.079955
C            11.900000            -6.062178             0.089926
H            11.750000            -3.897114             0.051977
C            13.300000            -6.062178             0.023308
C            11.900000            -8.487049             0.000469
C            13.300000            -8.487049             0.038028
C            14.000000            -7.274613             0.055001
H            13.850000            -5.109550             0.043997
H            13.850000            -9.439677             0.060615
H            15.100000            -7.274613             0.009338
C            -2.800000             0.000000             0.043595
C            -3.500000            -1.212436             0.097025
C            -2.800000            -2.424871             0.023980
C            -1.400000            -2.424871             0.066174
H            -3.350000             0.952628             0.015854
C            -0.700000            -3.637307             0.031527
C             0.700000            -3.637307             0.006445
C             1.400000            -4.849742             0.024811
C             2.800000            -4.849742             0.043694
C             3.500000            -6.062178             0.070104
C             4.900000            -6.062178             0.090881
C             5.600000            -7.274613             0.006624
C             7.000000            -7.274613             0.035738
C             7.700000            -8.487049             0.026953
C             9.100000            -8.487049             0.090006
C             9.800000            -9.699485             0.012526
C            11.200000            -9.699485             0.074276
H            11.750000           -10.652112             0.096914
C            -4.900000            -1.212436             0.006179
C            -5.600000            -2.424871             0.062369
C            -4.900000            -3.637307             0.057076
C            -3.500000            -3.637307             0.005136
H            -5.450000            -0.259808             0.084276
C            -2.800000            -4.849742             0.073615
C            -1.400000            -4.849742             0.080596
C            -0.700000            -6.062178             0.056160
C             0.700000            -6.062178             0.090393
C             1.400000            -7.274613             0.055623
C             2.800000            -7.274613             0.063618
C             3.500000            -8.487049             0.045885
C             4.900000            -8.487049             0.021241
C             5.600000            -9.699485             0.099730
C             7.000000            -9.699485             0.025844
C             7.700000           -10.911920             0.022474
C             9.100000           -10.911920             0.093342
H             9.650000           -11.864548             0.032863
C            -7.000000            -2.424871             0.087862
C            -7.700000            -3.637307             0.032709
C            -7.000000            -4.849742             0.045037
C            -5.600000            -4.849742             0.050271
H            -7.550000            -1.472243             0.054028
H            -8.800000            -3.637307             0.051101
H            -7.550000            -5.802370             0.006613
C            -4.900000            -6.062178             0.060039
C            -3.500000            -6.062178             0.061550
H            -5.450000            -7.014806             0.038422
C            -2.800000            -7.274613             0.054486
C            -1.400000            -7.274613             0.041309
H            -3.350000            -8.227241             0.000831
C            -0.700000            -8.487049             0.063605
C             0.700000            -8.487049             0.073480
H            -1.250000            -9.439677             0.079108
C             1.400000            -9.699485             0.046192
C             2.800000            -9.699485             0.027157
H             0.850000           -10.652112             0.022897
C             3.500000           -10.911920             0.088396
C             4.900000           -10.911920             0.065178
H             2.950000           -11.864548             0.002546
C             5.600000           -12.124356             0.038353
C             7.000000           -12.124356             0.088016
H             5.050000           -13.076984             0.038513
H             7.550000           -13.076984             0.085551
