102
isomero_24_15
C             0.700000             1.212436             0.026003
C            -0.700000             1.212436             0.023050
C            -1.400000             0.000000             0.093422
C            -0.700000            -1.212436             0.091345
C             0.700000            -1.212436             0.099797
C             1.400000            -0.000000             0.066550
H             1.250000             2.165064             0.055623
H            -1.250000             2.165064             0.085038
C             2.800000             0.000000             0.072811
C             1.400000            -2.424871             0.024209
N             2.800000            -2.424871             0.072493
C             3.500000            -1.212436             0.023976
H             3.350000             0.952628             0.019979
C             4.900000            -1.212436             0.046404
B             3.500000            -3.637307             0.046002
C             4.900000            -3.637307             0.046251
C             5.600000            -2.424871             0.046129
H             5.450000            -0.259808             0.067106
C             7.000000            -2.424871             0.023027
C             5.600000            -4.849742             0.049446
C             7.000000            -4.849742             0.087073
C             7.700000            -3.637307             0.044102
H             7.550000            -1.472243             0.055846
C             9.100000            -3.637307             0.002389
C             7.700000            -6.062178             0.056507
C             9.100000            -6.062178             0.032037
C             9.800000            -4.849742             0.047990
H             9.650000            -2.684679             0.095818
C            11.200000            -4.849742             0.008572
C             9.800000            -7.274613             0.093752
C            11.200000            -7.274613             0.078276
C            11.900000            -6.062178             0.040118
H            11.750000            -3.897114             0.004783
C            13.300000            -6.062178             0.017473
C            11.900000            -8.487049             0.091674
C            13.300000            -8.487049             0.063205
C            14.000000            -7.274613             0.037453
H            13.850000            -5.109550             0.031865
H            13.850000            -9.439677             0.000890
H            15.100000            -7.274613             0.081344
C            -2.800000             0.000000             0.050943
C            -3.500000            -1.212436             0.066271
C            -2.800000            -2.424871             0.098390
C            -1.400000            -2.424871             0.092147
H            -3.350000             0.952628             0.020453
C            -0.700000            -3.637307             0.033601
C             0.700000            -3.637307             0.032858
C             1.400000            -4.849742             0.075380
C             2.800000            -4.849742             0.019671
C             3.500000            -6.062178             0.030966
C             4.900000            -6.062178             0.014760
C             5.600000            -7.274613             0.065047
C             7.000000            -7.274613             0.021851
C             7.700000            -8.487049             0.023979
C             9.100000            -8.487049             0.016138
C             9.800000            -9.699485             0.097872
C            11.200000            -9.699485             0.071258
H            11.750000           -10.652112             0.038943
C            -4.900000            -1.212436             0.007950
C            -5.600000            -2.424871             0.013617
C            -4.900000            -3.637307             0.072532
C            -3.500000            -3.637307             0.005845
H            -5.450000            -0.259808             0.059708
C            -2.800000            -4.849742             0.096689
C            -1.400000            -4.849742             0.085615
C            -0.700000            -6.062178             0.049975
C             0.700000            -6.062178             0.018359
C             1.400000            -7.274613             0.045788
C             2.800000            -7.274613             0.004469
C             3.500000            -8.487049             0.055281
C             4.900000            -8.487049             0.092156
C             5.600000            -9.699485             0.056030
C             7.000000            -9.699485             0.050020
C             7.700000           -10.911920             0.070849
C             9.100000           -10.911920             0.093781
H             9.650000           -11.864548             0.012607
C            -7.000000            -2.424871             0.096825
C            -7.700000            -3.637307             0.049236
C            -7.000000            -4.849742             0.019224
C            -5.600000            -4.849742             0.059498
H            -7.550000            -1.472243             0.077266
H            -8.800000            -3.637307             0.055109
H            -7.550000            -5.802370             0.017037
C            -4.900000            -6.062178             0.079789
C            -3.500000            -6.062178             0.007661
H            -5.450000            -7.014806             0.087111
C            -2.800000            -7.274613             0.053598
C            -1.400000            -7.274613             0.006292
H            -3.350000            -8.227241             0.021522
C            -0.700000            -8.487049             0.066228
C             0.700000            -8.487049             0.022327
H            -1.250000            -9.439677             0.064827
C             1.400000            -9.699485             0.011636
C             2.800000            -9.699485             0.011122
H             0.850000           -10.652112             0.087442
C             3.500000           -10.911920             0.031892
C             4.900000           -10.911920             0.098187
H             2.950000           -11.864548             0.097507
C             5.600000           -12.124356             0.040149
C             7.000000           -12.124356             0.096331
H             5.050000           -13.076984             0.011181
H             7.550000           -13.076984             0.032029
