102
isomero_22_32
C             0.700000             1.212436             0.064923
C            -0.700000             1.212436             0.038644
C            -1.400000             0.000000             0.098044
C            -0.700000            -1.212436             0.020339
C             0.700000            -1.212436             0.064296
C             1.400000            -0.000000             0.046755
H             1.250000             2.165064             0.043933
H            -1.250000             2.165064             0.032378
C             2.800000             0.000000             0.068636
C             1.400000            -2.424871             0.025458
C             2.800000            -2.424871             0.012817
C             3.500000            -1.212436             0.016639
H             3.350000             0.952628             0.001835
C             4.900000            -1.212436             0.012736
C             3.500000            -3.637307             0.021620
C             4.900000            -3.637307             0.063956
C             5.600000            -2.424871             0.043902
H             5.450000            -0.259808             0.026109
C             7.000000            -2.424871             0.086059
C             5.600000            -4.849742             0.006948
N             7.000000            -4.849742             0.053298
B             7.700000            -3.637307             0.089556
H             7.550000            -1.472243             0.055500
C             9.100000            -3.637307             0.087173
C             7.700000            -6.062178             0.047523
C             9.100000            -6.062178             0.071828
C             9.800000            -4.849742             0.054543
H             9.650000            -2.684679             0.024604
C            11.200000            -4.849742             0.078528
C             9.800000            -7.274613             0.048495
C            11.200000            -7.274613             0.051166
C            11.900000            -6.062178             0.093655
H            11.750000            -3.897114             0.037766
C            13.300000            -6.062178             0.015552
C            11.900000            -8.487049             0.034027
C            13.300000            -8.487049             0.002901
C            14.000000            -7.274613             0.070425
H            13.850000            -5.109550             0.073082
H            13.850000            -9.439677             0.008792
H            15.100000            -7.274613             0.001165
C            -2.800000             0.000000             0.070291
C            -3.500000            -1.212436             0.050077
C            -2.800000            -2.424871             0.024037
C            -1.400000            -2.424871             0.052373
H            -3.350000             0.952628             0.041859
C            -0.700000            -3.637307             0.028336
C             0.700000            -3.637307             0.064635
C             1.400000            -4.849742             0.004382
C             2.800000            -4.849742             0.034585
C             3.500000            -6.062178             0.098000
C             4.900000            -6.062178             0.008309
C             5.600000            -7.274613             0.037166
C             7.000000            -7.274613             0.086993
C             7.700000            -8.487049             0.047883
C             9.100000            -8.487049             0.009198
C             9.800000            -9.699485             0.098227
C            11.200000            -9.699485             0.034794
H            11.750000           -10.652112             0.039674
C            -4.900000            -1.212436             0.062395
C            -5.600000            -2.424871             0.051819
C            -4.900000            -3.637307             0.039558
C            -3.500000            -3.637307             0.096971
H            -5.450000            -0.259808             0.026176
C            -2.800000            -4.849742             0.018736
C            -1.400000            -4.849742             0.011970
C            -0.700000            -6.062178             0.062781
C             0.700000            -6.062178             0.096325
C             1.400000            -7.274613             0.055584
C             2.800000            -7.274613             0.030817
C             3.500000            -8.487049             0.089484
C             4.900000            -8.487049             0.031610
C             5.600000            -9.699485             0.048310
C             7.000000            -9.699485             0.008910
C             7.700000           -10.911920             0.085359
C             9.100000           -10.911920             0.059263
H             9.650000           -11.864548             0.071977
C            -7.000000            -2.424871             0.024940
C            -7.700000            -3.637307             0.055012
C            -7.000000            -4.849742             0.035216
C            -5.600000            -4.849742             0.095096
H            -7.550000            -1.472243             0.010302
H            -8.800000            -3.637307             0.011987
H            -7.550000            -5.802370             0.050672
C            -4.900000            -6.062178             0.037084
C            -3.500000            -6.062178             0.010122
H            -5.450000            -7.014806             0.022696
C            -2.800000            -7.274613             0.057851
C            -1.400000            -7.274613             0.050158
H            -3.350000            -8.227241             0.028763
C            -0.700000            -8.487049             0.053199
C             0.700000            -8.487049             0.083898
H            -1.250000            -9.439677             0.034935
C             1.400000            -9.699485             0.065590
C             2.800000            -9.699485             0.075118
H             0.850000           -10.652112             0.034735
C             3.500000           -10.911920             0.099010
C             4.900000           -10.911920             0.060371
H             2.950000           -11.864548             0.000415
C             5.600000           -12.124356             0.099177
C             7.000000           -12.124356             0.067690
H             5.050000           -13.076984             0.067552
H             7.550000           -13.076984             0.002334
