102
isomero_42_43
C             0.700000             1.212436             0.013756
C            -0.700000             1.212436             0.068733
C            -1.400000             0.000000             0.082805
C            -0.700000            -1.212436             0.037830
C             0.700000            -1.212436             0.061160
C             1.400000            -0.000000             0.001134
H             1.250000             2.165064             0.029633
H            -1.250000             2.165064             0.075619
C             2.800000             0.000000             0.067219
C             1.400000            -2.424871             0.099110
C             2.800000            -2.424871             0.049538
C             3.500000            -1.212436             0.099183
H             3.350000             0.952628             0.018477
C             4.900000            -1.212436             0.081339
C             3.500000            -3.637307             0.021984
C             4.900000            -3.637307             0.074257
C             5.600000            -2.424871             0.000648
H             5.450000            -0.259808             0.024994
C             7.000000            -2.424871             0.042712
C             5.600000            -4.849742             0.081255
C             7.000000            -4.849742             0.083813
C             7.700000            -3.637307             0.013752
H             7.550000            -1.472243             0.030843
C             9.100000            -3.637307             0.097443
N             7.700000            -6.062178             0.069094
B             9.100000            -6.062178             0.079198
C             9.800000            -4.849742             0.057775
H             9.650000            -2.684679             0.079185
C            11.200000            -4.849742             0.062979
C             9.800000            -7.274613             0.091860
C            11.200000            -7.274613             0.067231
C            11.900000            -6.062178             0.087207
H            11.750000            -3.897114             0.092275
C            13.300000            -6.062178             0.018856
C            11.900000            -8.487049             0.089873
C            13.300000            -8.487049             0.067500
C            14.000000            -7.274613             0.068699
H            13.850000            -5.109550             0.065445
H            13.850000            -9.439677             0.056534
H            15.100000            -7.274613             0.087320
C            -2.800000             0.000000             0.067520
C            -3.500000            -1.212436             0.061014
C            -2.800000            -2.424871             0.083977
C            -1.400000            -2.424871             0.094103
H            -3.350000             0.952628             0.015939
C            -0.700000            -3.637307             0.003879
C             0.700000            -3.637307             0.049722
C             1.400000            -4.849742             0.062700
C             2.800000            -4.849742             0.099423
C             3.500000            -6.062178             0.031736
C             4.900000            -6.062178             0.047345
C             5.600000            -7.274613             0.083186
C             7.000000            -7.274613             0.040887
C             7.700000            -8.487049             0.048034
C             9.100000            -8.487049             0.040971
C             9.800000            -9.699485             0.088587
C            11.200000            -9.699485             0.089594
H            11.750000           -10.652112             0.021364
C            -4.900000            -1.212436             0.052178
C            -5.600000            -2.424871             0.070210
C            -4.900000            -3.637307             0.082462
C            -3.500000            -3.637307             0.015245
H            -5.450000            -0.259808             0.050511
C            -2.800000            -4.849742             0.052502
C            -1.400000            -4.849742             0.043763
C            -0.700000            -6.062178             0.060873
C             0.700000            -6.062178             0.053634
C             1.400000            -7.274613             0.004864
C             2.800000            -7.274613             0.057704
C             3.500000            -8.487049             0.007081
C             4.900000            -8.487049             0.055252
C             5.600000            -9.699485             0.054751
C             7.000000            -9.699485             0.088202
C             7.700000           -10.911920             0.004454
C             9.100000           -10.911920             0.052415
H             9.650000           -11.864548             0.010570
C            -7.000000            -2.424871             0.095958
C            -7.700000            -3.637307             0.084919
C            -7.000000            -4.849742             0.067440
C            -5.600000            -4.849742             0.033821
H            -7.550000            -1.472243             0.006676
H            -8.800000            -3.637307             0.048736
H            -7.550000            -5.802370             0.022610
C            -4.900000            -6.062178             0.094176
C            -3.500000            -6.062178             0.066320
H            -5.450000            -7.014806             0.038546
C            -2.800000            -7.274613             0.022548
C            -1.400000            -7.274613             0.041071
H            -3.350000            -8.227241             0.090170
C            -0.700000            -8.487049             0.047759
C             0.700000            -8.487049             0.022552
H            -1.250000            -9.439677             0.025601
C             1.400000            -9.699485             0.066661
C             2.800000            -9.699485             0.084221
H             0.850000           -10.652112             0.078575
C             3.500000           -10.911920             0.053859
C             4.900000           -10.911920             0.090557
H             2.950000           -11.864548             0.028786
C             5.600000           -12.124356             0.061186
C             7.000000           -12.124356             0.040127
H             5.050000           -13.076984             0.054515
H             7.550000           -13.076984             0.047067
