102
isomero_8_15
C             0.700000             1.212436             0.008750
C            -0.700000             1.212436             0.019939
C            -1.400000             0.000000             0.074989
C            -0.700000            -1.212436             0.073517
C             0.700000            -1.212436             0.045817
C             1.400000            -0.000000             0.085015
H             1.250000             2.165064             0.018707
H            -1.250000             2.165064             0.094912
C             2.800000             0.000000             0.002034
C             1.400000            -2.424871             0.012802
N             2.800000            -2.424871             0.065481
B             3.500000            -1.212436             0.087080
H             3.350000             0.952628             0.095147
C             4.900000            -1.212436             0.095695
C             3.500000            -3.637307             0.054806
C             4.900000            -3.637307             0.011432
C             5.600000            -2.424871             0.079865
H             5.450000            -0.259808             0.077274
C             7.000000            -2.424871             0.077392
C             5.600000            -4.849742             0.070263
C             7.000000            -4.849742             0.077446
C             7.700000            -3.637307             0.000386
H             7.550000            -1.472243             0.081213
C             9.100000            -3.637307             0.005033
C             7.700000            -6.062178             0.094059
C             9.100000            -6.062178             0.015461
C             9.800000            -4.849742             0.072740
H             9.650000            -2.684679             0.015469
C            11.200000            -4.849742             0.006341
C             9.800000            -7.274613             0.038489
C            11.200000            -7.274613             0.045772
C            11.900000            -6.062178             0.010033
H            11.750000            -3.897114             0.027545
C            13.300000            -6.062178             0.071964
C            11.900000            -8.487049             0.036154
C            13.300000            -8.487049             0.038556
C            14.000000            -7.274613             0.009276
H            13.850000            -5.109550             0.096156
H            13.850000            -9.439677             0.063542
H            15.100000            -7.274613             0.079847
C            -2.800000             0.000000             0.065648
C            -3.500000            -1.212436             0.085544
C            -2.800000            -2.424871             0.088838
C            -1.400000            -2.424871             0.030130
H            -3.350000             0.952628             0.071700
C            -0.700000            -3.637307             0.032345
C             0.700000            -3.637307             0.028486
C             1.400000            -4.849742             0.024140
C             2.800000            -4.849742             0.083333
C             3.500000            -6.062178             0.053088
C             4.900000            -6.062178             0.042226
C             5.600000            -7.274613             0.041354
C             7.000000            -7.274613             0.082615
C             7.700000            -8.487049             0.072155
C             9.100000            -8.487049             0.059824
C             9.800000            -9.699485             0.031492
C            11.200000            -9.699485             0.016138
H            11.750000           -10.652112             0.008370
C            -4.900000            -1.212436             0.015845
C            -5.600000            -2.424871             0.077890
C            -4.900000            -3.637307             0.003216
C            -3.500000            -3.637307             0.085960
H            -5.450000            -0.259808             0.015650
C            -2.800000            -4.849742             0.035628
C            -1.400000            -4.849742             0.000363
C            -0.700000            -6.062178             0.087011
C             0.700000            -6.062178             0.000484
C             1.400000            -7.274613             0.079829
C             2.800000            -7.274613             0.027529
C             3.500000            -8.487049             0.003839
C             4.900000            -8.487049             0.023029
C             5.600000            -9.699485             0.063959
C             7.000000            -9.699485             0.022596
C             7.700000           -10.911920             0.011112
C             9.100000           -10.911920             0.008501
H             9.650000           -11.864548             0.056696
C            -7.000000            -2.424871             0.086171
C            -7.700000            -3.637307             0.012647
C            -7.000000            -4.849742             0.072947
C            -5.600000            -4.849742             0.018870
H            -7.550000            -1.472243             0.017019
H            -8.800000            -3.637307             0.016581
H            -7.550000            -5.802370             0.080010
C            -4.900000            -6.062178             0.046287
C            -3.500000            -6.062178             0.086801
H            -5.450000            -7.014806             0.030232
C            -2.800000            -7.274613             0.026571
C            -1.400000            -7.274613             0.022411
H            -3.350000            -8.227241             0.094029
C            -0.700000            -8.487049             0.085200
C             0.700000            -8.487049             0.056936
H            -1.250000            -9.439677             0.003524
C             1.400000            -9.699485             0.051792
C             2.800000            -9.699485             0.098091
H             0.850000           -10.652112             0.067386
C             3.500000           -10.911920             0.085055
C             4.900000           -10.911920             0.016645
H             2.950000           -11.864548             0.037849
C             5.600000           -12.124356             0.007914
C             7.000000           -12.124356             0.093500
H             5.050000           -13.076984             0.097669
H             7.550000           -13.076984             0.073678
