102
isomero_30_41
C             0.700000             1.212436             0.017782
C            -0.700000             1.212436             0.098409
C            -1.400000             0.000000             0.062273
C            -0.700000            -1.212436             0.033937
C             0.700000            -1.212436             0.084653
C             1.400000            -0.000000             0.087145
H             1.250000             2.165064             0.085259
H            -1.250000             2.165064             0.027347
C             2.800000             0.000000             0.059825
C             1.400000            -2.424871             0.049333
C             2.800000            -2.424871             0.074804
C             3.500000            -1.212436             0.022285
H             3.350000             0.952628             0.082888
C             4.900000            -1.212436             0.047752
C             3.500000            -3.637307             0.084072
C             4.900000            -3.637307             0.000840
C             5.600000            -2.424871             0.012034
H             5.450000            -0.259808             0.046872
C             7.000000            -2.424871             0.005901
C             5.600000            -4.849742             0.054362
C             7.000000            -4.849742             0.028734
C             7.700000            -3.637307             0.054264
H             7.550000            -1.472243             0.079601
C             9.100000            -3.637307             0.048919
C             7.700000            -6.062178             0.032175
C             9.100000            -6.062178             0.036676
C             9.800000            -4.849742             0.053162
H             9.650000            -2.684679             0.042101
B            11.200000            -4.849742             0.009487
C             9.800000            -7.274613             0.034496
C            11.200000            -7.274613             0.008967
N            11.900000            -6.062178             0.083590
H            11.750000            -3.897114             0.063958
C            13.300000            -6.062178             0.049502
C            11.900000            -8.487049             0.099566
C            13.300000            -8.487049             0.088535
C            14.000000            -7.274613             0.017123
H            13.850000            -5.109550             0.007819
H            13.850000            -9.439677             0.063369
H            15.100000            -7.274613             0.022407
C            -2.800000             0.000000             0.092027
C            -3.500000            -1.212436             0.055738
C            -2.800000            -2.424871             0.084568
C            -1.400000            -2.424871             0.050153
H            -3.350000             0.952628             0.079587
C            -0.700000            -3.637307             0.016037
C             0.700000            -3.637307             0.065229
C             1.400000            -4.849742             0.006926
C             2.800000            -4.849742             0.065116
C             3.500000            -6.062178             0.051372
C             4.900000            -6.062178             0.033100
C             5.600000            -7.274613             0.044415
C             7.000000            -7.274613             0.041479
C             7.700000            -8.487049             0.009447
C             9.100000            -8.487049             0.033361
C             9.800000            -9.699485             0.009500
C            11.200000            -9.699485             0.006099
H            11.750000           -10.652112             0.088743
C            -4.900000            -1.212436             0.000712
C            -5.600000            -2.424871             0.062169
C            -4.900000            -3.637307             0.050743
C            -3.500000            -3.637307             0.061872
H            -5.450000            -0.259808             0.089656
C            -2.800000            -4.849742             0.084224
C            -1.400000            -4.849742             0.013604
C            -0.700000            -6.062178             0.044725
C             0.700000            -6.062178             0.034151
C             1.400000            -7.274613             0.099633
C             2.800000            -7.274613             0.098426
C             3.500000            -8.487049             0.042163
C             4.900000            -8.487049             0.085812
C             5.600000            -9.699485             0.093682
C             7.000000            -9.699485             0.045166
C             7.700000           -10.911920             0.014212
C             9.100000           -10.911920             0.076464
H             9.650000           -11.864548             0.074783
C            -7.000000            -2.424871             0.083265
C            -7.700000            -3.637307             0.073528
C            -7.000000            -4.849742             0.019904
C            -5.600000            -4.849742             0.072270
H            -7.550000            -1.472243             0.056365
H            -8.800000            -3.637307             0.038106
H            -7.550000            -5.802370             0.091728
C            -4.900000            -6.062178             0.023041
C            -3.500000            -6.062178             0.093289
H            -5.450000            -7.014806             0.058766
C            -2.800000            -7.274613             0.050459
C            -1.400000            -7.274613             0.040256
H            -3.350000            -8.227241             0.066784
C            -0.700000            -8.487049             0.024607
C             0.700000            -8.487049             0.034713
H            -1.250000            -9.439677             0.061273
C             1.400000            -9.699485             0.077309
C             2.800000            -9.699485             0.043158
H             0.850000           -10.652112             0.037529
C             3.500000           -10.911920             0.022742
C             4.900000           -10.911920             0.027128
H             2.950000           -11.864548             0.057972
C             5.600000           -12.124356             0.083438
C             7.000000           -12.124356             0.046592
H             5.050000           -13.076984             0.034703
H             7.550000           -13.076984             0.074151
