102
isomero_22_21
C             0.700000             1.212436             0.080586
C            -0.700000             1.212436             0.039273
C            -1.400000             0.000000             0.096706
C            -0.700000            -1.212436             0.094549
C             0.700000            -1.212436             0.097662
C             1.400000            -0.000000             0.019354
H             1.250000             2.165064             0.072097
H            -1.250000             2.165064             0.026444
C             2.800000             0.000000             0.056628
C             1.400000            -2.424871             0.017441
C             2.800000            -2.424871             0.045189
C             3.500000            -1.212436             0.049876
H             3.350000             0.952628             0.041075
C             4.900000            -1.212436             0.083368
C             3.500000            -3.637307             0.058701
C             4.900000            -3.637307             0.045294
C             5.600000            -2.424871             0.025420
H             5.450000            -0.259808             0.042802
C             7.000000            -2.424871             0.004525
C             5.600000            -4.849742             0.020954
C             7.000000            -4.849742             0.023606
B             7.700000            -3.637307             0.003194
H             7.550000            -1.472243             0.027488
N             9.100000            -3.637307             0.047180
C             7.700000            -6.062178             0.016747
C             9.100000            -6.062178             0.096955
C             9.800000            -4.849742             0.031754
H             9.650000            -2.684679             0.043714
C            11.200000            -4.849742             0.072247
C             9.800000            -7.274613             0.066117
C            11.200000            -7.274613             0.027226
C            11.900000            -6.062178             0.051131
H            11.750000            -3.897114             0.098028
C            13.300000            -6.062178             0.018468
C            11.900000            -8.487049             0.014046
C            13.300000            -8.487049             0.089969
C            14.000000            -7.274613             0.020707
H            13.850000            -5.109550             0.007391
H            13.850000            -9.439677             0.078627
H            15.100000            -7.274613             0.087507
C            -2.800000             0.000000             0.053963
C            -3.500000            -1.212436             0.054801
C            -2.800000            -2.424871             0.070235
C            -1.400000            -2.424871             0.086277
H            -3.350000             0.952628             0.086914
C            -0.700000            -3.637307             0.024697
C             0.700000            -3.637307             0.022538
C             1.400000            -4.849742             0.011905
C             2.800000            -4.849742             0.015993
C             3.500000            -6.062178             0.090292
C             4.900000            -6.062178             0.020246
C             5.600000            -7.274613             0.067043
C             7.000000            -7.274613             0.082928
C             7.700000            -8.487049             0.029252
C             9.100000            -8.487049             0.088480
C             9.800000            -9.699485             0.062073
C            11.200000            -9.699485             0.047873
H            11.750000           -10.652112             0.062711
C            -4.900000            -1.212436             0.049644
C            -5.600000            -2.424871             0.077841
C            -4.900000            -3.637307             0.096517
C            -3.500000            -3.637307             0.081471
H            -5.450000            -0.259808             0.043546
C            -2.800000            -4.849742             0.028734
C            -1.400000            -4.849742             0.079591
C            -0.700000            -6.062178             0.004131
C             0.700000            -6.062178             0.017714
C             1.400000            -7.274613             0.038664
C             2.800000            -7.274613             0.082779
C             3.500000            -8.487049             0.073745
C             4.900000            -8.487049             0.063018
C             5.600000            -9.699485             0.014065
C             7.000000            -9.699485             0.092849
C             7.700000           -10.911920             0.051972
C             9.100000           -10.911920             0.064383
H             9.650000           -11.864548             0.095272
C            -7.000000            -2.424871             0.082011
C            -7.700000            -3.637307             0.027488
C            -7.000000            -4.849742             0.014530
C            -5.600000            -4.849742             0.083350
H            -7.550000            -1.472243             0.057056
H            -8.800000            -3.637307             0.041856
H            -7.550000            -5.802370             0.087222
C            -4.900000            -6.062178             0.001509
C            -3.500000            -6.062178             0.082565
H            -5.450000            -7.014806             0.020606
C            -2.800000            -7.274613             0.014669
C            -1.400000            -7.274613             0.041246
H            -3.350000            -8.227241             0.084144
C            -0.700000            -8.487049             0.081951
C             0.700000            -8.487049             0.099313
H            -1.250000            -9.439677             0.067301
C             1.400000            -9.699485             0.009388
C             2.800000            -9.699485             0.016207
H             0.850000           -10.652112             0.088817
C             3.500000           -10.911920             0.008225
C             4.900000           -10.911920             0.010265
H             2.950000           -11.864548             0.045960
C             5.600000           -12.124356             0.026030
C             7.000000           -12.124356             0.020047
H             5.050000           -13.076984             0.024549
H             7.550000           -13.076984             0.068311
