102
isomero_2_1
N             0.700000             1.212436             0.078414
B            -0.700000             1.212436             0.073599
C            -1.400000             0.000000             0.007901
C            -0.700000            -1.212436             0.041428
C             0.700000            -1.212436             0.078879
C             1.400000            -0.000000             0.053584
H             1.250000             2.165064             0.089888
H            -1.250000             2.165064             0.001135
C             2.800000             0.000000             0.038598
C             1.400000            -2.424871             0.011429
C             2.800000            -2.424871             0.072580
C             3.500000            -1.212436             0.087433
H             3.350000             0.952628             0.096345
C             4.900000            -1.212436             0.029795
C             3.500000            -3.637307             0.001942
C             4.900000            -3.637307             0.002038
C             5.600000            -2.424871             0.012158
H             5.450000            -0.259808             0.023511
C             7.000000            -2.424871             0.004417
C             5.600000            -4.849742             0.095339
C             7.000000            -4.849742             0.073194
C             7.700000            -3.637307             0.046003
H             7.550000            -1.472243             0.054457
C             9.100000            -3.637307             0.072222
C             7.700000            -6.062178             0.002855
C             9.100000            -6.062178             0.001366
C             9.800000            -4.849742             0.074179
H             9.650000            -2.684679             0.033371
C            11.200000            -4.849742             0.015167
C             9.800000            -7.274613             0.023636
C            11.200000            -7.274613             0.059151
C            11.900000            -6.062178             0.080050
H            11.750000            -3.897114             0.061278
C            13.300000            -6.062178             0.039024
C            11.900000            -8.487049             0.057979
C            13.300000            -8.487049             0.004597
C            14.000000            -7.274613             0.052800
H            13.850000            -5.109550             0.000471
H            13.850000            -9.439677             0.036448
H            15.100000            -7.274613             0.029263
C            -2.800000             0.000000             0.083638
C            -3.500000            -1.212436             0.018044
C            -2.800000            -2.424871             0.081465
C            -1.400000            -2.424871             0.081153
H            -3.350000             0.952628             0.071308
C            -0.700000            -3.637307             0.094723
C             0.700000            -3.637307             0.076201
C             1.400000            -4.849742             0.065017
C             2.800000            -4.849742             0.058056
C             3.500000            -6.062178             0.028803
C             4.900000            -6.062178             0.003842
C             5.600000            -7.274613             0.014081
C             7.000000            -7.274613             0.045869
C             7.700000            -8.487049             0.017655
C             9.100000            -8.487049             0.032543
C             9.800000            -9.699485             0.018220
C            11.200000            -9.699485             0.082702
H            11.750000           -10.652112             0.085153
C            -4.900000            -1.212436             0.036614
C            -5.600000            -2.424871             0.011744
C            -4.900000            -3.637307             0.042829
C            -3.500000            -3.637307             0.092065
H            -5.450000            -0.259808             0.050056
C            -2.800000            -4.849742             0.013329
C            -1.400000            -4.849742             0.045727
C            -0.700000            -6.062178             0.092295
C             0.700000            -6.062178             0.054226
C             1.400000            -7.274613             0.084809
C             2.800000            -7.274613             0.026068
C             3.500000            -8.487049             0.006515
C             4.900000            -8.487049             0.060579
C             5.600000            -9.699485             0.032431
C             7.000000            -9.699485             0.022690
C             7.700000           -10.911920             0.039198
C             9.100000           -10.911920             0.066060
H             9.650000           -11.864548             0.004476
C            -7.000000            -2.424871             0.052141
C            -7.700000            -3.637307             0.003337
C            -7.000000            -4.849742             0.004225
C            -5.600000            -4.849742             0.050766
H            -7.550000            -1.472243             0.070378
H            -8.800000            -3.637307             0.048299
H            -7.550000            -5.802370             0.073478
C            -4.900000            -6.062178             0.093553
C            -3.500000            -6.062178             0.094824
H            -5.450000            -7.014806             0.061497
C            -2.800000            -7.274613             0.093560
C            -1.400000            -7.274613             0.048776
H            -3.350000            -8.227241             0.055512
C            -0.700000            -8.487049             0.029650
C             0.700000            -8.487049             0.083961
H            -1.250000            -9.439677             0.050677
C             1.400000            -9.699485             0.039409
C             2.800000            -9.699485             0.065909
H             0.850000           -10.652112             0.005259
C             3.500000           -10.911920             0.049990
C             4.900000           -10.911920             0.081678
H             2.950000           -11.864548             0.085625
C             5.600000           -12.124356             0.079130
C             7.000000           -12.124356             0.075935
H             5.050000           -13.076984             0.021146
H             7.550000           -13.076984             0.083484
