102
isomero_43_42
C             0.700000             1.212436             0.039513
C            -0.700000             1.212436             0.052497
C            -1.400000             0.000000             0.038818
C            -0.700000            -1.212436             0.071875
C             0.700000            -1.212436             0.092486
C             1.400000            -0.000000             0.066849
H             1.250000             2.165064             0.048381
H            -1.250000             2.165064             0.078959
C             2.800000             0.000000             0.000788
C             1.400000            -2.424871             0.090665
C             2.800000            -2.424871             0.014470
C             3.500000            -1.212436             0.075838
H             3.350000             0.952628             0.000472
C             4.900000            -1.212436             0.016356
C             3.500000            -3.637307             0.002955
C             4.900000            -3.637307             0.032549
C             5.600000            -2.424871             0.084619
H             5.450000            -0.259808             0.078039
C             7.000000            -2.424871             0.048099
C             5.600000            -4.849742             0.038977
C             7.000000            -4.849742             0.041403
C             7.700000            -3.637307             0.086367
H             7.550000            -1.472243             0.043968
C             9.100000            -3.637307             0.097040
B             7.700000            -6.062178             0.070582
N             9.100000            -6.062178             0.087891
C             9.800000            -4.849742             0.015379
H             9.650000            -2.684679             0.031003
C            11.200000            -4.849742             0.083634
C             9.800000            -7.274613             0.029080
C            11.200000            -7.274613             0.082953
C            11.900000            -6.062178             0.088920
H            11.750000            -3.897114             0.013836
C            13.300000            -6.062178             0.070172
C            11.900000            -8.487049             0.015585
C            13.300000            -8.487049             0.010330
C            14.000000            -7.274613             0.095756
H            13.850000            -5.109550             0.001185
H            13.850000            -9.439677             0.020415
H            15.100000            -7.274613             0.016802
C            -2.800000             0.000000             0.088912
C            -3.500000            -1.212436             0.030595
C            -2.800000            -2.424871             0.091347
C            -1.400000            -2.424871             0.099315
H            -3.350000             0.952628             0.003945
C            -0.700000            -3.637307             0.026979
C             0.700000            -3.637307             0.002061
C             1.400000            -4.849742             0.022543
C             2.800000            -4.849742             0.084733
C             3.500000            -6.062178             0.057132
C             4.900000            -6.062178             0.015625
C             5.600000            -7.274613             0.020101
C             7.000000            -7.274613             0.066633
C             7.700000            -8.487049             0.030678
C             9.100000            -8.487049             0.033377
C             9.800000            -9.699485             0.032854
C            11.200000            -9.699485             0.030433
H            11.750000           -10.652112             0.024188
C            -4.900000            -1.212436             0.022802
C            -5.600000            -2.424871             0.022703
C            -4.900000            -3.637307             0.049609
C            -3.500000            -3.637307             0.068387
H            -5.450000            -0.259808             0.087485
C            -2.800000            -4.849742             0.019997
C            -1.400000            -4.849742             0.038963
C            -0.700000            -6.062178             0.054751
C             0.700000            -6.062178             0.024493
C             1.400000            -7.274613             0.061277
C             2.800000            -7.274613             0.027411
C             3.500000            -8.487049             0.038355
C             4.900000            -8.487049             0.041458
C             5.600000            -9.699485             0.021831
C             7.000000            -9.699485             0.049067
C             7.700000           -10.911920             0.050156
C             9.100000           -10.911920             0.025468
H             9.650000           -11.864548             0.043818
C            -7.000000            -2.424871             0.013606
C            -7.700000            -3.637307             0.067283
C            -7.000000            -4.849742             0.053861
C            -5.600000            -4.849742             0.057705
H            -7.550000            -1.472243             0.024404
H            -8.800000            -3.637307             0.047874
H            -7.550000            -5.802370             0.015716
C            -4.900000            -6.062178             0.011970
C            -3.500000            -6.062178             0.079091
H            -5.450000            -7.014806             0.039717
C            -2.800000            -7.274613             0.049785
C            -1.400000            -7.274613             0.032053
H            -3.350000            -8.227241             0.037686
C            -0.700000            -8.487049             0.039857
C             0.700000            -8.487049             0.072773
H            -1.250000            -9.439677             0.047659
C             1.400000            -9.699485             0.065224
C             2.800000            -9.699485             0.060919
H             0.850000           -10.652112             0.072002
C             3.500000           -10.911920             0.084738
C             4.900000           -10.911920             0.012461
H             2.950000           -11.864548             0.097383
C             5.600000           -12.124356             0.020942
C             7.000000           -12.124356             0.004818
H             5.050000           -13.076984             0.088218
H             7.550000           -13.076984             0.008423
