102
isomero_40_41
C             0.700000             1.212436             0.055439
C            -0.700000             1.212436             0.014732
C            -1.400000             0.000000             0.060533
C            -0.700000            -1.212436             0.072509
C             0.700000            -1.212436             0.094979
C             1.400000            -0.000000             0.081619
H             1.250000             2.165064             0.042886
H            -1.250000             2.165064             0.039579
C             2.800000             0.000000             0.034035
C             1.400000            -2.424871             0.057039
C             2.800000            -2.424871             0.012270
C             3.500000            -1.212436             0.082406
H             3.350000             0.952628             0.097868
C             4.900000            -1.212436             0.071533
C             3.500000            -3.637307             0.071167
C             4.900000            -3.637307             0.023511
C             5.600000            -2.424871             0.070446
H             5.450000            -0.259808             0.005423
C             7.000000            -2.424871             0.064667
C             5.600000            -4.849742             0.017171
C             7.000000            -4.849742             0.036653
C             7.700000            -3.637307             0.065078
H             7.550000            -1.472243             0.073656
C             9.100000            -3.637307             0.003636
C             7.700000            -6.062178             0.094359
C             9.100000            -6.062178             0.016369
C             9.800000            -4.849742             0.002261
H             9.650000            -2.684679             0.060995
C            11.200000            -4.849742             0.050037
C             9.800000            -7.274613             0.032834
C            11.200000            -7.274613             0.088098
N            11.900000            -6.062178             0.097176
H            11.750000            -3.897114             0.008147
B            13.300000            -6.062178             0.001808
C            11.900000            -8.487049             0.092352
C            13.300000            -8.487049             0.026843
C            14.000000            -7.274613             0.033355
H            13.850000            -5.109550             0.062917
H            13.850000            -9.439677             0.075845
H            15.100000            -7.274613             0.061074
C            -2.800000             0.000000             0.080911
C            -3.500000            -1.212436             0.098824
C            -2.800000            -2.424871             0.012609
C            -1.400000            -2.424871             0.021825
H            -3.350000             0.952628             0.062112
C            -0.700000            -3.637307             0.027301
C             0.700000            -3.637307             0.041131
C             1.400000            -4.849742             0.059257
C             2.800000            -4.849742             0.018287
C             3.500000            -6.062178             0.087436
C             4.900000            -6.062178             0.098200
C             5.600000            -7.274613             0.096751
C             7.000000            -7.274613             0.000744
C             7.700000            -8.487049             0.088644
C             9.100000            -8.487049             0.079889
C             9.800000            -9.699485             0.074257
C            11.200000            -9.699485             0.055828
H            11.750000           -10.652112             0.052391
C            -4.900000            -1.212436             0.035268
C            -5.600000            -2.424871             0.036920
C            -4.900000            -3.637307             0.039983
C            -3.500000            -3.637307             0.083014
H            -5.450000            -0.259808             0.080852
C            -2.800000            -4.849742             0.062870
C            -1.400000            -4.849742             0.099069
C            -0.700000            -6.062178             0.018375
C             0.700000            -6.062178             0.057401
C             1.400000            -7.274613             0.072669
C             2.800000            -7.274613             0.006481
C             3.500000            -8.487049             0.089817
C             4.900000            -8.487049             0.032431
C             5.600000            -9.699485             0.056006
C             7.000000            -9.699485             0.092344
C             7.700000           -10.911920             0.037836
C             9.100000           -10.911920             0.096424
H             9.650000           -11.864548             0.023718
C            -7.000000            -2.424871             0.043571
C            -7.700000            -3.637307             0.029989
C            -7.000000            -4.849742             0.096108
C            -5.600000            -4.849742             0.033512
H            -7.550000            -1.472243             0.048001
H            -8.800000            -3.637307             0.045846
H            -7.550000            -5.802370             0.072341
C            -4.900000            -6.062178             0.084449
C            -3.500000            -6.062178             0.048731
H            -5.450000            -7.014806             0.023087
C            -2.800000            -7.274613             0.047372
C            -1.400000            -7.274613             0.052390
H            -3.350000            -8.227241             0.011400
C            -0.700000            -8.487049             0.021698
C             0.700000            -8.487049             0.067191
H            -1.250000            -9.439677             0.086025
C             1.400000            -9.699485             0.007405
C             2.800000            -9.699485             0.048014
H             0.850000           -10.652112             0.076354
C             3.500000           -10.911920             0.045358
C             4.900000           -10.911920             0.049333
H             2.950000           -11.864548             0.072256
C             5.600000           -12.124356             0.066463
C             7.000000           -12.124356             0.024697
H             5.050000           -13.076984             0.088589
H             7.550000           -13.076984             0.083796
