102
isomero_33_44
C             0.700000             1.212436             0.032211
C            -0.700000             1.212436             0.077276
C            -1.400000             0.000000             0.000553
C            -0.700000            -1.212436             0.093805
C             0.700000            -1.212436             0.046064
C             1.400000            -0.000000             0.046758
H             1.250000             2.165064             0.041363
H            -1.250000             2.165064             0.001394
C             2.800000             0.000000             0.020876
C             1.400000            -2.424871             0.058369
C             2.800000            -2.424871             0.055651
C             3.500000            -1.212436             0.039084
H             3.350000             0.952628             0.088048
C             4.900000            -1.212436             0.057260
C             3.500000            -3.637307             0.093158
C             4.900000            -3.637307             0.059517
C             5.600000            -2.424871             0.053955
H             5.450000            -0.259808             0.031960
C             7.000000            -2.424871             0.099404
B             5.600000            -4.849742             0.088127
C             7.000000            -4.849742             0.049732
C             7.700000            -3.637307             0.050130
H             7.550000            -1.472243             0.060548
C             9.100000            -3.637307             0.077483
C             7.700000            -6.062178             0.089112
C             9.100000            -6.062178             0.076251
C             9.800000            -4.849742             0.069067
H             9.650000            -2.684679             0.092714
C            11.200000            -4.849742             0.022861
C             9.800000            -7.274613             0.044382
C            11.200000            -7.274613             0.059410
C            11.900000            -6.062178             0.074651
H            11.750000            -3.897114             0.071871
C            13.300000            -6.062178             0.065597
C            11.900000            -8.487049             0.058780
C            13.300000            -8.487049             0.093563
C            14.000000            -7.274613             0.063878
H            13.850000            -5.109550             0.022367
H            13.850000            -9.439677             0.016934
H            15.100000            -7.274613             0.039094
C            -2.800000             0.000000             0.045901
C            -3.500000            -1.212436             0.084544
C            -2.800000            -2.424871             0.053328
C            -1.400000            -2.424871             0.007128
H            -3.350000             0.952628             0.035362
C            -0.700000            -3.637307             0.092796
C             0.700000            -3.637307             0.041425
C             1.400000            -4.849742             0.036895
C             2.800000            -4.849742             0.085090
C             3.500000            -6.062178             0.079760
N             4.900000            -6.062178             0.035024
C             5.600000            -7.274613             0.077640
C             7.000000            -7.274613             0.004847
C             7.700000            -8.487049             0.059027
C             9.100000            -8.487049             0.015824
C             9.800000            -9.699485             0.093762
C            11.200000            -9.699485             0.020851
H            11.750000           -10.652112             0.040803
C            -4.900000            -1.212436             0.056068
C            -5.600000            -2.424871             0.041266
C            -4.900000            -3.637307             0.026901
C            -3.500000            -3.637307             0.076546
H            -5.450000            -0.259808             0.020646
C            -2.800000            -4.849742             0.061463
C            -1.400000            -4.849742             0.094092
C            -0.700000            -6.062178             0.041051
C             0.700000            -6.062178             0.002669
C             1.400000            -7.274613             0.050414
C             2.800000            -7.274613             0.002277
C             3.500000            -8.487049             0.025926
C             4.900000            -8.487049             0.016734
C             5.600000            -9.699485             0.082997
C             7.000000            -9.699485             0.042591
C             7.700000           -10.911920             0.019809
C             9.100000           -10.911920             0.080856
H             9.650000           -11.864548             0.062918
C            -7.000000            -2.424871             0.023479
C            -7.700000            -3.637307             0.001691
C            -7.000000            -4.849742             0.033959
C            -5.600000            -4.849742             0.036952
H            -7.550000            -1.472243             0.080696
H            -8.800000            -3.637307             0.052937
H            -7.550000            -5.802370             0.018408
C            -4.900000            -6.062178             0.064276
C            -3.500000            -6.062178             0.016835
H            -5.450000            -7.014806             0.021017
C            -2.800000            -7.274613             0.040029
C            -1.400000            -7.274613             0.000119
H            -3.350000            -8.227241             0.058748
C            -0.700000            -8.487049             0.016181
C             0.700000            -8.487049             0.051323
H            -1.250000            -9.439677             0.053316
C             1.400000            -9.699485             0.077202
C             2.800000            -9.699485             0.039344
H             0.850000           -10.652112             0.010893
C             3.500000           -10.911920             0.069934
C             4.900000           -10.911920             0.047683
H             2.950000           -11.864548             0.094126
C             5.600000           -12.124356             0.015274
C             7.000000           -12.124356             0.001871
H             5.050000           -13.076984             0.080162
H             7.550000           -13.076984             0.010431
