102
isomero_23_33
C             0.700000             1.212436             0.083075
C            -0.700000             1.212436             0.011793
C            -1.400000             0.000000             0.025473
C            -0.700000            -1.212436             0.074728
C             0.700000            -1.212436             0.099758
C             1.400000            -0.000000             0.014630
H             1.250000             2.165064             0.066249
H            -1.250000             2.165064             0.012667
C             2.800000             0.000000             0.024282
C             1.400000            -2.424871             0.093967
C             2.800000            -2.424871             0.013927
C             3.500000            -1.212436             0.009108
H             3.350000             0.952628             0.009605
C             4.900000            -1.212436             0.079691
C             3.500000            -3.637307             0.013894
B             4.900000            -3.637307             0.010264
C             5.600000            -2.424871             0.047730
H             5.450000            -0.259808             0.008173
C             7.000000            -2.424871             0.059259
N             5.600000            -4.849742             0.014753
C             7.000000            -4.849742             0.090666
C             7.700000            -3.637307             0.034930
H             7.550000            -1.472243             0.029800
C             9.100000            -3.637307             0.045397
C             7.700000            -6.062178             0.068594
C             9.100000            -6.062178             0.003576
C             9.800000            -4.849742             0.067210
H             9.650000            -2.684679             0.073233
C            11.200000            -4.849742             0.011395
C             9.800000            -7.274613             0.041852
C            11.200000            -7.274613             0.068092
C            11.900000            -6.062178             0.044948
H            11.750000            -3.897114             0.035528
C            13.300000            -6.062178             0.058861
C            11.900000            -8.487049             0.045025
C            13.300000            -8.487049             0.070276
C            14.000000            -7.274613             0.000175
H            13.850000            -5.109550             0.053226
H            13.850000            -9.439677             0.054051
H            15.100000            -7.274613             0.074267
C            -2.800000             0.000000             0.088938
C            -3.500000            -1.212436             0.025146
C            -2.800000            -2.424871             0.076744
C            -1.400000            -2.424871             0.012764
H            -3.350000             0.952628             0.003809
C            -0.700000            -3.637307             0.040472
C             0.700000            -3.637307             0.017351
C             1.400000            -4.849742             0.081411
C             2.800000            -4.849742             0.049090
C             3.500000            -6.062178             0.040394
C             4.900000            -6.062178             0.092514
C             5.600000            -7.274613             0.078111
C             7.000000            -7.274613             0.065582
C             7.700000            -8.487049             0.089520
C             9.100000            -8.487049             0.064166
C             9.800000            -9.699485             0.040821
C            11.200000            -9.699485             0.027852
H            11.750000           -10.652112             0.000936
C            -4.900000            -1.212436             0.021110
C            -5.600000            -2.424871             0.045574
C            -4.900000            -3.637307             0.079512
C            -3.500000            -3.637307             0.010626
H            -5.450000            -0.259808             0.067707
C            -2.800000            -4.849742             0.016730
C            -1.400000            -4.849742             0.047039
C            -0.700000            -6.062178             0.005419
C             0.700000            -6.062178             0.063785
C             1.400000            -7.274613             0.023902
C             2.800000            -7.274613             0.021285
C             3.500000            -8.487049             0.053114
C             4.900000            -8.487049             0.005642
C             5.600000            -9.699485             0.046743
C             7.000000            -9.699485             0.004038
C             7.700000           -10.911920             0.087936
C             9.100000           -10.911920             0.094915
H             9.650000           -11.864548             0.003938
C            -7.000000            -2.424871             0.086697
C            -7.700000            -3.637307             0.062872
C            -7.000000            -4.849742             0.077719
C            -5.600000            -4.849742             0.046887
H            -7.550000            -1.472243             0.097042
H            -8.800000            -3.637307             0.074079
H            -7.550000            -5.802370             0.064553
C            -4.900000            -6.062178             0.096632
C            -3.500000            -6.062178             0.055535
H            -5.450000            -7.014806             0.068378
C            -2.800000            -7.274613             0.095872
C            -1.400000            -7.274613             0.031891
H            -3.350000            -8.227241             0.076741
C            -0.700000            -8.487049             0.063683
C             0.700000            -8.487049             0.002174
H            -1.250000            -9.439677             0.009148
C             1.400000            -9.699485             0.077897
C             2.800000            -9.699485             0.002877
H             0.850000           -10.652112             0.011566
C             3.500000           -10.911920             0.006866
C             4.900000           -10.911920             0.037257
H             2.950000           -11.864548             0.012196
C             5.600000           -12.124356             0.004196
C             7.000000           -12.124356             0.059050
H             5.050000           -13.076984             0.098104
H             7.550000           -13.076984             0.092779
