102
isomero_43_53
C             0.700000             1.212436             0.010834
C            -0.700000             1.212436             0.022277
C            -1.400000             0.000000             0.084258
C            -0.700000            -1.212436             0.026503
C             0.700000            -1.212436             0.000270
C             1.400000            -0.000000             0.079307
H             1.250000             2.165064             0.005105
H            -1.250000             2.165064             0.061019
C             2.800000             0.000000             0.010230
C             1.400000            -2.424871             0.024657
C             2.800000            -2.424871             0.039835
C             3.500000            -1.212436             0.081073
H             3.350000             0.952628             0.071314
C             4.900000            -1.212436             0.075800
C             3.500000            -3.637307             0.095762
C             4.900000            -3.637307             0.075544
C             5.600000            -2.424871             0.095762
H             5.450000            -0.259808             0.027610
C             7.000000            -2.424871             0.067392
C             5.600000            -4.849742             0.087187
C             7.000000            -4.849742             0.006853
C             7.700000            -3.637307             0.050927
H             7.550000            -1.472243             0.023088
C             9.100000            -3.637307             0.079743
B             7.700000            -6.062178             0.034125
C             9.100000            -6.062178             0.003104
C             9.800000            -4.849742             0.088056
H             9.650000            -2.684679             0.074626
C            11.200000            -4.849742             0.039531
C             9.800000            -7.274613             0.097849
C            11.200000            -7.274613             0.078760
C            11.900000            -6.062178             0.028082
H            11.750000            -3.897114             0.002612
C            13.300000            -6.062178             0.091483
C            11.900000            -8.487049             0.062792
C            13.300000            -8.487049             0.043721
C            14.000000            -7.274613             0.003143
H            13.850000            -5.109550             0.010388
H            13.850000            -9.439677             0.083379
H            15.100000            -7.274613             0.046189
C            -2.800000             0.000000             0.069390
C            -3.500000            -1.212436             0.081364
C            -2.800000            -2.424871             0.030028
C            -1.400000            -2.424871             0.030675
H            -3.350000             0.952628             0.058141
C            -0.700000            -3.637307             0.072018
C             0.700000            -3.637307             0.004327
C             1.400000            -4.849742             0.023422
C             2.800000            -4.849742             0.050713
C             3.500000            -6.062178             0.023984
C             4.900000            -6.062178             0.042387
C             5.600000            -7.274613             0.099568
N             7.000000            -7.274613             0.094899
C             7.700000            -8.487049             0.071706
C             9.100000            -8.487049             0.047225
C             9.800000            -9.699485             0.079729
C            11.200000            -9.699485             0.003393
H            11.750000           -10.652112             0.055535
C            -4.900000            -1.212436             0.086450
C            -5.600000            -2.424871             0.040642
C            -4.900000            -3.637307             0.072844
C            -3.500000            -3.637307             0.001205
H            -5.450000            -0.259808             0.026593
C            -2.800000            -4.849742             0.073260
C            -1.400000            -4.849742             0.025045
C            -0.700000            -6.062178             0.023384
C             0.700000            -6.062178             0.023328
C             1.400000            -7.274613             0.004022
C             2.800000            -7.274613             0.052898
C             3.500000            -8.487049             0.035526
C             4.900000            -8.487049             0.064448
C             5.600000            -9.699485             0.032390
C             7.000000            -9.699485             0.084843
C             7.700000           -10.911920             0.040038
C             9.100000           -10.911920             0.021271
H             9.650000           -11.864548             0.061899
C            -7.000000            -2.424871             0.039680
C            -7.700000            -3.637307             0.023302
C            -7.000000            -4.849742             0.021458
C            -5.600000            -4.849742             0.001819
H            -7.550000            -1.472243             0.029520
H            -8.800000            -3.637307             0.075066
H            -7.550000            -5.802370             0.038294
C            -4.900000            -6.062178             0.037222
C            -3.500000            -6.062178             0.001244
H            -5.450000            -7.014806             0.033215
C            -2.800000            -7.274613             0.008187
C            -1.400000            -7.274613             0.045349
H            -3.350000            -8.227241             0.031857
C            -0.700000            -8.487049             0.092349
C             0.700000            -8.487049             0.055260
H            -1.250000            -9.439677             0.030491
C             1.400000            -9.699485             0.004853
C             2.800000            -9.699485             0.003671
H             0.850000           -10.652112             0.074753
C             3.500000           -10.911920             0.035566
C             4.900000           -10.911920             0.026718
H             2.950000           -11.864548             0.088074
C             5.600000           -12.124356             0.073870
C             7.000000           -12.124356             0.094531
H             5.050000           -13.076984             0.041648
H             7.550000           -13.076984             0.009818
