102
isomero_16_9
C             0.700000             1.212436             0.029598
C            -0.700000             1.212436             0.057370
C            -1.400000             0.000000             0.094929
C            -0.700000            -1.212436             0.056879
N             0.700000            -1.212436             0.054056
C             1.400000            -0.000000             0.046160
H             1.250000             2.165064             0.029214
H            -1.250000             2.165064             0.054389
C             2.800000             0.000000             0.013039
B             1.400000            -2.424871             0.097198
C             2.800000            -2.424871             0.007679
C             3.500000            -1.212436             0.092175
H             3.350000             0.952628             0.067549
C             4.900000            -1.212436             0.037685
C             3.500000            -3.637307             0.029409
C             4.900000            -3.637307             0.097970
C             5.600000            -2.424871             0.043934
H             5.450000            -0.259808             0.015589
C             7.000000            -2.424871             0.093501
C             5.600000            -4.849742             0.014399
C             7.000000            -4.849742             0.091427
C             7.700000            -3.637307             0.093408
H             7.550000            -1.472243             0.087110
C             9.100000            -3.637307             0.030097
C             7.700000            -6.062178             0.099089
C             9.100000            -6.062178             0.029213
C             9.800000            -4.849742             0.025983
H             9.650000            -2.684679             0.051041
C            11.200000            -4.849742             0.037631
C             9.800000            -7.274613             0.086734
C            11.200000            -7.274613             0.007198
C            11.900000            -6.062178             0.074870
H            11.750000            -3.897114             0.004812
C            13.300000            -6.062178             0.023773
C            11.900000            -8.487049             0.096476
C            13.300000            -8.487049             0.091413
C            14.000000            -7.274613             0.062414
H            13.850000            -5.109550             0.098085
H            13.850000            -9.439677             0.096934
H            15.100000            -7.274613             0.009233
C            -2.800000             0.000000             0.002705
C            -3.500000            -1.212436             0.004843
C            -2.800000            -2.424871             0.067289
C            -1.400000            -2.424871             0.082705
H            -3.350000             0.952628             0.032510
C            -0.700000            -3.637307             0.046769
C             0.700000            -3.637307             0.009748
C             1.400000            -4.849742             0.015478
C             2.800000            -4.849742             0.071628
C             3.500000            -6.062178             0.056542
C             4.900000            -6.062178             0.075452
C             5.600000            -7.274613             0.088466
C             7.000000            -7.274613             0.055134
C             7.700000            -8.487049             0.094073
C             9.100000            -8.487049             0.045812
C             9.800000            -9.699485             0.087583
C            11.200000            -9.699485             0.034614
H            11.750000           -10.652112             0.024472
C            -4.900000            -1.212436             0.008228
C            -5.600000            -2.424871             0.076439
C            -4.900000            -3.637307             0.035453
C            -3.500000            -3.637307             0.025161
H            -5.450000            -0.259808             0.082682
C            -2.800000            -4.849742             0.030577
C            -1.400000            -4.849742             0.027788
C            -0.700000            -6.062178             0.075788
C             0.700000            -6.062178             0.093805
C             1.400000            -7.274613             0.071578
C             2.800000            -7.274613             0.016302
C             3.500000            -8.487049             0.065146
C             4.900000            -8.487049             0.034263
C             5.600000            -9.699485             0.029302
C             7.000000            -9.699485             0.067790
C             7.700000           -10.911920             0.042502
C             9.100000           -10.911920             0.088103
H             9.650000           -11.864548             0.044867
C            -7.000000            -2.424871             0.074272
C            -7.700000            -3.637307             0.000998
C            -7.000000            -4.849742             0.091777
C            -5.600000            -4.849742             0.002969
H            -7.550000            -1.472243             0.077967
H            -8.800000            -3.637307             0.017488
H            -7.550000            -5.802370             0.068940
C            -4.900000            -6.062178             0.018528
C            -3.500000            -6.062178             0.023881
H            -5.450000            -7.014806             0.018198
C            -2.800000            -7.274613             0.053526
C            -1.400000            -7.274613             0.034959
H            -3.350000            -8.227241             0.016882
C            -0.700000            -8.487049             0.060926
C             0.700000            -8.487049             0.055098
H            -1.250000            -9.439677             0.023937
C             1.400000            -9.699485             0.084130
C             2.800000            -9.699485             0.017707
H             0.850000           -10.652112             0.041412
C             3.500000           -10.911920             0.030415
C             4.900000           -10.911920             0.063033
H             2.950000           -11.864548             0.050209
C             5.600000           -12.124356             0.061141
C             7.000000           -12.124356             0.096276
H             5.050000           -13.076984             0.039097
H             7.550000           -13.076984             0.012728
