102
isomero_20_19
C             0.700000             1.212436             0.039174
C            -0.700000             1.212436             0.064756
C            -1.400000             0.000000             0.098119
C            -0.700000            -1.212436             0.042860
C             0.700000            -1.212436             0.087691
C             1.400000            -0.000000             0.010163
H             1.250000             2.165064             0.062702
H            -1.250000             2.165064             0.030260
C             2.800000             0.000000             0.049146
C             1.400000            -2.424871             0.074193
C             2.800000            -2.424871             0.073935
C             3.500000            -1.212436             0.031231
H             3.350000             0.952628             0.072237
C             4.900000            -1.212436             0.040623
C             3.500000            -3.637307             0.053066
C             4.900000            -3.637307             0.017440
C             5.600000            -2.424871             0.069586
H             5.450000            -0.259808             0.033425
C             7.000000            -2.424871             0.081583
C             5.600000            -4.849742             0.032797
C             7.000000            -4.849742             0.035388
C             7.700000            -3.637307             0.040111
H             7.550000            -1.472243             0.098451
C             9.100000            -3.637307             0.020203
C             7.700000            -6.062178             0.009991
C             9.100000            -6.062178             0.069599
C             9.800000            -4.849742             0.004075
H             9.650000            -2.684679             0.058248
C            11.200000            -4.849742             0.020589
C             9.800000            -7.274613             0.052622
C            11.200000            -7.274613             0.075416
C            11.900000            -6.062178             0.039162
H            11.750000            -3.897114             0.072472
C            13.300000            -6.062178             0.027255
C            11.900000            -8.487049             0.014202
C            13.300000            -8.487049             0.019449
C            14.000000            -7.274613             0.028445
H            13.850000            -5.109550             0.011673
H            13.850000            -9.439677             0.006106
H            15.100000            -7.274613             0.072007
C            -2.800000             0.000000             0.099509
C            -3.500000            -1.212436             0.027203
C            -2.800000            -2.424871             0.091678
C            -1.400000            -2.424871             0.004931
H            -3.350000             0.952628             0.077200
C            -0.700000            -3.637307             0.077043
C             0.700000            -3.637307             0.062563
C             1.400000            -4.849742             0.065023
C             2.800000            -4.849742             0.073464
C             3.500000            -6.062178             0.021823
C             4.900000            -6.062178             0.018096
C             5.600000            -7.274613             0.043652
C             7.000000            -7.274613             0.009251
C             7.700000            -8.487049             0.076576
C             9.100000            -8.487049             0.044233
C             9.800000            -9.699485             0.012811
C            11.200000            -9.699485             0.028258
H            11.750000           -10.652112             0.057369
C            -4.900000            -1.212436             0.096257
N            -5.600000            -2.424871             0.068378
C            -4.900000            -3.637307             0.051052
C            -3.500000            -3.637307             0.073451
H            -5.450000            -0.259808             0.058758
C            -2.800000            -4.849742             0.001366
C            -1.400000            -4.849742             0.040193
C            -0.700000            -6.062178             0.051225
C             0.700000            -6.062178             0.003242
C             1.400000            -7.274613             0.048787
C             2.800000            -7.274613             0.093112
C             3.500000            -8.487049             0.022451
C             4.900000            -8.487049             0.074206
C             5.600000            -9.699485             0.056164
C             7.000000            -9.699485             0.010840
C             7.700000           -10.911920             0.065941
C             9.100000           -10.911920             0.067548
H             9.650000           -11.864548             0.022956
B            -7.000000            -2.424871             0.058433
C            -7.700000            -3.637307             0.097477
C            -7.000000            -4.849742             0.021837
C            -5.600000            -4.849742             0.073863
H            -7.550000            -1.472243             0.094495
H            -8.800000            -3.637307             0.004427
H            -7.550000            -5.802370             0.038431
C            -4.900000            -6.062178             0.074481
C            -3.500000            -6.062178             0.093953
H            -5.450000            -7.014806             0.016534
C            -2.800000            -7.274613             0.035043
C            -1.400000            -7.274613             0.058695
H            -3.350000            -8.227241             0.030720
C            -0.700000            -8.487049             0.086694
C             0.700000            -8.487049             0.055596
H            -1.250000            -9.439677             0.098228
C             1.400000            -9.699485             0.023203
C             2.800000            -9.699485             0.085431
H             0.850000           -10.652112             0.041470
C             3.500000           -10.911920             0.035826
C             4.900000           -10.911920             0.057129
H             2.950000           -11.864548             0.036289
C             5.600000           -12.124356             0.066238
C             7.000000           -12.124356             0.032132
H             5.050000           -13.076984             0.013570
H             7.550000           -13.076984             0.088271
