102
isomero_19_20
C             0.700000             1.212436             0.097531
C            -0.700000             1.212436             0.094715
C            -1.400000             0.000000             0.010148
C            -0.700000            -1.212436             0.042261
C             0.700000            -1.212436             0.066445
C             1.400000            -0.000000             0.080923
H             1.250000             2.165064             0.086160
H            -1.250000             2.165064             0.076687
C             2.800000             0.000000             0.084242
C             1.400000            -2.424871             0.075621
C             2.800000            -2.424871             0.056709
C             3.500000            -1.212436             0.060017
H             3.350000             0.952628             0.012266
C             4.900000            -1.212436             0.033441
C             3.500000            -3.637307             0.097123
C             4.900000            -3.637307             0.051139
C             5.600000            -2.424871             0.032042
H             5.450000            -0.259808             0.055296
C             7.000000            -2.424871             0.034426
C             5.600000            -4.849742             0.064549
C             7.000000            -4.849742             0.058734
C             7.700000            -3.637307             0.040932
H             7.550000            -1.472243             0.026256
C             9.100000            -3.637307             0.013784
C             7.700000            -6.062178             0.071352
C             9.100000            -6.062178             0.045350
C             9.800000            -4.849742             0.084565
H             9.650000            -2.684679             0.003893
C            11.200000            -4.849742             0.030004
C             9.800000            -7.274613             0.008041
C            11.200000            -7.274613             0.020187
C            11.900000            -6.062178             0.011651
H            11.750000            -3.897114             0.020515
C            13.300000            -6.062178             0.093943
C            11.900000            -8.487049             0.026935
C            13.300000            -8.487049             0.015377
C            14.000000            -7.274613             0.065575
H            13.850000            -5.109550             0.041552
H            13.850000            -9.439677             0.060482
H            15.100000            -7.274613             0.014127
C            -2.800000             0.000000             0.079801
C            -3.500000            -1.212436             0.077585
C            -2.800000            -2.424871             0.016556
C            -1.400000            -2.424871             0.024442
H            -3.350000             0.952628             0.081548
C            -0.700000            -3.637307             0.088458
C             0.700000            -3.637307             0.040703
C             1.400000            -4.849742             0.058331
C             2.800000            -4.849742             0.031552
C             3.500000            -6.062178             0.073045
C             4.900000            -6.062178             0.052566
C             5.600000            -7.274613             0.069560
C             7.000000            -7.274613             0.045713
C             7.700000            -8.487049             0.038152
C             9.100000            -8.487049             0.088080
C             9.800000            -9.699485             0.065445
C            11.200000            -9.699485             0.049508
H            11.750000           -10.652112             0.083466
C            -4.900000            -1.212436             0.076190
B            -5.600000            -2.424871             0.098738
C            -4.900000            -3.637307             0.061302
C            -3.500000            -3.637307             0.013938
H            -5.450000            -0.259808             0.065365
C            -2.800000            -4.849742             0.072874
C            -1.400000            -4.849742             0.045829
C            -0.700000            -6.062178             0.025563
C             0.700000            -6.062178             0.087726
C             1.400000            -7.274613             0.069125
C             2.800000            -7.274613             0.028770
C             3.500000            -8.487049             0.069564
C             4.900000            -8.487049             0.056991
C             5.600000            -9.699485             0.090412
C             7.000000            -9.699485             0.008112
C             7.700000           -10.911920             0.015223
C             9.100000           -10.911920             0.075445
H             9.650000           -11.864548             0.064063
N            -7.000000            -2.424871             0.097320
C            -7.700000            -3.637307             0.073563
C            -7.000000            -4.849742             0.005535
C            -5.600000            -4.849742             0.059301
H            -7.550000            -1.472243             0.086859
H            -8.800000            -3.637307             0.040852
H            -7.550000            -5.802370             0.092330
C            -4.900000            -6.062178             0.066229
C            -3.500000            -6.062178             0.057662
H            -5.450000            -7.014806             0.083651
C            -2.800000            -7.274613             0.007663
C            -1.400000            -7.274613             0.016948
H            -3.350000            -8.227241             0.019351
C            -0.700000            -8.487049             0.049518
C             0.700000            -8.487049             0.030470
H            -1.250000            -9.439677             0.038099
C             1.400000            -9.699485             0.061896
C             2.800000            -9.699485             0.014140
H             0.850000           -10.652112             0.027888
C             3.500000           -10.911920             0.028965
C             4.900000           -10.911920             0.042901
H             2.950000           -11.864548             0.091115
C             5.600000           -12.124356             0.058868
C             7.000000           -12.124356             0.061992
H             5.050000           -13.076984             0.059689
H             7.550000           -13.076984             0.001499
