102
isomero_13_22
C             0.700000             1.212436             0.048694
C            -0.700000             1.212436             0.023743
C            -1.400000             0.000000             0.037322
C            -0.700000            -1.212436             0.087888
C             0.700000            -1.212436             0.085187
C             1.400000            -0.000000             0.009543
H             1.250000             2.165064             0.022326
H            -1.250000             2.165064             0.074483
C             2.800000             0.000000             0.043829
C             1.400000            -2.424871             0.086534
C             2.800000            -2.424871             0.009385
C             3.500000            -1.212436             0.079020
H             3.350000             0.952628             0.068652
C             4.900000            -1.212436             0.067750
C             3.500000            -3.637307             0.032492
C             4.900000            -3.637307             0.042304
C             5.600000            -2.424871             0.000817
H             5.450000            -0.259808             0.000819
B             7.000000            -2.424871             0.059303
C             5.600000            -4.849742             0.004283
C             7.000000            -4.849742             0.009731
N             7.700000            -3.637307             0.013037
H             7.550000            -1.472243             0.064434
C             9.100000            -3.637307             0.076265
C             7.700000            -6.062178             0.087057
C             9.100000            -6.062178             0.051657
C             9.800000            -4.849742             0.097551
H             9.650000            -2.684679             0.064983
C            11.200000            -4.849742             0.035906
C             9.800000            -7.274613             0.089074
C            11.200000            -7.274613             0.071925
C            11.900000            -6.062178             0.053960
H            11.750000            -3.897114             0.006559
C            13.300000            -6.062178             0.097407
C            11.900000            -8.487049             0.000611
C            13.300000            -8.487049             0.099345
C            14.000000            -7.274613             0.038973
H            13.850000            -5.109550             0.083591
H            13.850000            -9.439677             0.080488
H            15.100000            -7.274613             0.086375
C            -2.800000             0.000000             0.085629
C            -3.500000            -1.212436             0.092232
C            -2.800000            -2.424871             0.085091
C            -1.400000            -2.424871             0.088387
H            -3.350000             0.952628             0.001361
C            -0.700000            -3.637307             0.021922
C             0.700000            -3.637307             0.019972
C             1.400000            -4.849742             0.095792
C             2.800000            -4.849742             0.038470
C             3.500000            -6.062178             0.091892
C             4.900000            -6.062178             0.074983
C             5.600000            -7.274613             0.038646
C             7.000000            -7.274613             0.095633
C             7.700000            -8.487049             0.051715
C             9.100000            -8.487049             0.013824
C             9.800000            -9.699485             0.039697
C            11.200000            -9.699485             0.087151
H            11.750000           -10.652112             0.030770
C            -4.900000            -1.212436             0.070214
C            -5.600000            -2.424871             0.060446
C            -4.900000            -3.637307             0.067198
C            -3.500000            -3.637307             0.035914
H            -5.450000            -0.259808             0.047275
C            -2.800000            -4.849742             0.055681
C            -1.400000            -4.849742             0.035275
C            -0.700000            -6.062178             0.050756
C             0.700000            -6.062178             0.094703
C             1.400000            -7.274613             0.023851
C             2.800000            -7.274613             0.069854
C             3.500000            -8.487049             0.058766
C             4.900000            -8.487049             0.052340
C             5.600000            -9.699485             0.028391
C             7.000000            -9.699485             0.068001
C             7.700000           -10.911920             0.063986
C             9.100000           -10.911920             0.029376
H             9.650000           -11.864548             0.067993
C            -7.000000            -2.424871             0.088734
C            -7.700000            -3.637307             0.091068
C            -7.000000            -4.849742             0.089773
C            -5.600000            -4.849742             0.001917
H            -7.550000            -1.472243             0.073209
H            -8.800000            -3.637307             0.081123
H            -7.550000            -5.802370             0.022051
C            -4.900000            -6.062178             0.015181
C            -3.500000            -6.062178             0.095641
H            -5.450000            -7.014806             0.080106
C            -2.800000            -7.274613             0.021612
C            -1.400000            -7.274613             0.074928
H            -3.350000            -8.227241             0.008299
C            -0.700000            -8.487049             0.008376
C             0.700000            -8.487049             0.036783
H            -1.250000            -9.439677             0.094442
C             1.400000            -9.699485             0.017304
C             2.800000            -9.699485             0.081747
H             0.850000           -10.652112             0.026031
C             3.500000           -10.911920             0.000627
C             4.900000           -10.911920             0.065544
H             2.950000           -11.864548             0.010391
C             5.600000           -12.124356             0.062987
C             7.000000           -12.124356             0.081956
H             5.050000           -13.076984             0.068365
H             7.550000           -13.076984             0.030184
