102
isomero_14_13
C             0.700000             1.212436             0.084676
C            -0.700000             1.212436             0.041867
C            -1.400000             0.000000             0.049096
C            -0.700000            -1.212436             0.092201
C             0.700000            -1.212436             0.090792
C             1.400000            -0.000000             0.041961
H             1.250000             2.165064             0.068237
H            -1.250000             2.165064             0.016511
C             2.800000             0.000000             0.000010
C             1.400000            -2.424871             0.058841
C             2.800000            -2.424871             0.079960
C             3.500000            -1.212436             0.084425
H             3.350000             0.952628             0.010075
C             4.900000            -1.212436             0.046019
C             3.500000            -3.637307             0.070053
C             4.900000            -3.637307             0.040751
B             5.600000            -2.424871             0.018398
H             5.450000            -0.259808             0.068069
N             7.000000            -2.424871             0.047632
C             5.600000            -4.849742             0.087212
C             7.000000            -4.849742             0.028762
C             7.700000            -3.637307             0.060069
H             7.550000            -1.472243             0.042092
C             9.100000            -3.637307             0.078240
C             7.700000            -6.062178             0.055279
C             9.100000            -6.062178             0.001850
C             9.800000            -4.849742             0.033175
H             9.650000            -2.684679             0.075275
C            11.200000            -4.849742             0.067803
C             9.800000            -7.274613             0.045347
C            11.200000            -7.274613             0.004982
C            11.900000            -6.062178             0.079974
H            11.750000            -3.897114             0.079728
C            13.300000            -6.062178             0.073924
C            11.900000            -8.487049             0.078080
C            13.300000            -8.487049             0.008145
C            14.000000            -7.274613             0.082390
H            13.850000            -5.109550             0.054421
H            13.850000            -9.439677             0.036475
H            15.100000            -7.274613             0.063076
C            -2.800000             0.000000             0.036392
C            -3.500000            -1.212436             0.008088
C            -2.800000            -2.424871             0.004985
C            -1.400000            -2.424871             0.065666
H            -3.350000             0.952628             0.093630
C            -0.700000            -3.637307             0.092785
C             0.700000            -3.637307             0.040604
C             1.400000            -4.849742             0.078167
C             2.800000            -4.849742             0.052952
C             3.500000            -6.062178             0.095628
C             4.900000            -6.062178             0.072925
C             5.600000            -7.274613             0.092149
C             7.000000            -7.274613             0.078302
C             7.700000            -8.487049             0.056935
C             9.100000            -8.487049             0.012671
C             9.800000            -9.699485             0.053589
C            11.200000            -9.699485             0.050169
H            11.750000           -10.652112             0.019585
C            -4.900000            -1.212436             0.021773
C            -5.600000            -2.424871             0.061841
C            -4.900000            -3.637307             0.076197
C            -3.500000            -3.637307             0.011288
H            -5.450000            -0.259808             0.069219
C            -2.800000            -4.849742             0.005982
C            -1.400000            -4.849742             0.072501
C            -0.700000            -6.062178             0.025117
C             0.700000            -6.062178             0.003196
C             1.400000            -7.274613             0.061783
C             2.800000            -7.274613             0.051897
C             3.500000            -8.487049             0.001206
C             4.900000            -8.487049             0.084786
C             5.600000            -9.699485             0.037218
C             7.000000            -9.699485             0.026623
C             7.700000           -10.911920             0.079559
C             9.100000           -10.911920             0.049139
H             9.650000           -11.864548             0.077254
C            -7.000000            -2.424871             0.047276
C            -7.700000            -3.637307             0.004785
C            -7.000000            -4.849742             0.054299
C            -5.600000            -4.849742             0.006586
H            -7.550000            -1.472243             0.035795
H            -8.800000            -3.637307             0.017341
H            -7.550000            -5.802370             0.013560
C            -4.900000            -6.062178             0.047103
C            -3.500000            -6.062178             0.066709
H            -5.450000            -7.014806             0.023645
C            -2.800000            -7.274613             0.019428
C            -1.400000            -7.274613             0.068903
H            -3.350000            -8.227241             0.058325
C            -0.700000            -8.487049             0.077713
C             0.700000            -8.487049             0.038572
H            -1.250000            -9.439677             0.000470
C             1.400000            -9.699485             0.010787
C             2.800000            -9.699485             0.009266
H             0.850000           -10.652112             0.076121
C             3.500000           -10.911920             0.079334
C             4.900000           -10.911920             0.048607
H             2.950000           -11.864548             0.034357
C             5.600000           -12.124356             0.074123
C             7.000000           -12.124356             0.011461
H             5.050000           -13.076984             0.036426
H             7.550000           -13.076984             0.083576
