102
isomero_23_14
C             0.700000             1.212436             0.082071
C            -0.700000             1.212436             0.030241
C            -1.400000             0.000000             0.015013
C            -0.700000            -1.212436             0.027984
C             0.700000            -1.212436             0.033318
C             1.400000            -0.000000             0.030273
H             1.250000             2.165064             0.051811
H            -1.250000             2.165064             0.078872
C             2.800000             0.000000             0.033751
C             1.400000            -2.424871             0.059151
C             2.800000            -2.424871             0.056531
C             3.500000            -1.212436             0.022243
H             3.350000             0.952628             0.077772
C             4.900000            -1.212436             0.040488
C             3.500000            -3.637307             0.017475
B             4.900000            -3.637307             0.030551
N             5.600000            -2.424871             0.080394
H             5.450000            -0.259808             0.091413
C             7.000000            -2.424871             0.086129
C             5.600000            -4.849742             0.092637
C             7.000000            -4.849742             0.080349
C             7.700000            -3.637307             0.041479
H             7.550000            -1.472243             0.030970
C             9.100000            -3.637307             0.034315
C             7.700000            -6.062178             0.049053
C             9.100000            -6.062178             0.084486
C             9.800000            -4.849742             0.010282
H             9.650000            -2.684679             0.056326
C            11.200000            -4.849742             0.025328
C             9.800000            -7.274613             0.012174
C            11.200000            -7.274613             0.010569
C            11.900000            -6.062178             0.069539
H            11.750000            -3.897114             0.087837
C            13.300000            -6.062178             0.098208
C            11.900000            -8.487049             0.093862
C            13.300000            -8.487049             0.049997
C            14.000000            -7.274613             0.057566
H            13.850000            -5.109550             0.050669
H            13.850000            -9.439677             0.094879
H            15.100000            -7.274613             0.003829
C            -2.800000             0.000000             0.017864
C            -3.500000            -1.212436             0.065373
C            -2.800000            -2.424871             0.018958
C            -1.400000            -2.424871             0.008838
H            -3.350000             0.952628             0.044626
C            -0.700000            -3.637307             0.030455
C             0.700000            -3.637307             0.047643
C             1.400000            -4.849742             0.034934
C             2.800000            -4.849742             0.037205
C             3.500000            -6.062178             0.088635
C             4.900000            -6.062178             0.038994
C             5.600000            -7.274613             0.019173
C             7.000000            -7.274613             0.013475
C             7.700000            -8.487049             0.045939
C             9.100000            -8.487049             0.038287
C             9.800000            -9.699485             0.083131
C            11.200000            -9.699485             0.030180
H            11.750000           -10.652112             0.084361
C            -4.900000            -1.212436             0.094513
C            -5.600000            -2.424871             0.000397
C            -4.900000            -3.637307             0.063441
C            -3.500000            -3.637307             0.091481
H            -5.450000            -0.259808             0.000667
C            -2.800000            -4.849742             0.012732
C            -1.400000            -4.849742             0.072251
C            -0.700000            -6.062178             0.080479
C             0.700000            -6.062178             0.082559
C             1.400000            -7.274613             0.032825
C             2.800000            -7.274613             0.032488
C             3.500000            -8.487049             0.015375
C             4.900000            -8.487049             0.028550
C             5.600000            -9.699485             0.040956
C             7.000000            -9.699485             0.094317
C             7.700000           -10.911920             0.053682
C             9.100000           -10.911920             0.032855
H             9.650000           -11.864548             0.095588
C            -7.000000            -2.424871             0.082327
C            -7.700000            -3.637307             0.095402
C            -7.000000            -4.849742             0.041465
C            -5.600000            -4.849742             0.013283
H            -7.550000            -1.472243             0.049378
H            -8.800000            -3.637307             0.034941
H            -7.550000            -5.802370             0.005232
C            -4.900000            -6.062178             0.076236
C            -3.500000            -6.062178             0.049117
H            -5.450000            -7.014806             0.016807
C            -2.800000            -7.274613             0.033123
C            -1.400000            -7.274613             0.080303
H            -3.350000            -8.227241             0.016711
C            -0.700000            -8.487049             0.058391
C             0.700000            -8.487049             0.003801
H            -1.250000            -9.439677             0.039598
C             1.400000            -9.699485             0.035183
C             2.800000            -9.699485             0.008617
H             0.850000           -10.652112             0.009479
C             3.500000           -10.911920             0.051502
C             4.900000           -10.911920             0.030957
H             2.950000           -11.864548             0.063343
C             5.600000           -12.124356             0.017567
C             7.000000           -12.124356             0.037714
H             5.050000           -13.076984             0.082527
H             7.550000           -13.076984             0.052323
