102
isomero_42_31
C             0.700000             1.212436             0.036657
C            -0.700000             1.212436             0.070834
C            -1.400000             0.000000             0.023341
C            -0.700000            -1.212436             0.028111
C             0.700000            -1.212436             0.075867
C             1.400000            -0.000000             0.010120
H             1.250000             2.165064             0.039646
H            -1.250000             2.165064             0.027597
C             2.800000             0.000000             0.066814
C             1.400000            -2.424871             0.049388
C             2.800000            -2.424871             0.015108
C             3.500000            -1.212436             0.022583
H             3.350000             0.952628             0.041891
C             4.900000            -1.212436             0.078646
C             3.500000            -3.637307             0.049001
C             4.900000            -3.637307             0.087639
C             5.600000            -2.424871             0.025003
H             5.450000            -0.259808             0.021973
C             7.000000            -2.424871             0.053064
C             5.600000            -4.849742             0.007208
C             7.000000            -4.849742             0.041666
C             7.700000            -3.637307             0.081435
H             7.550000            -1.472243             0.093253
C             9.100000            -3.637307             0.095341
C             7.700000            -6.062178             0.053060
B             9.100000            -6.062178             0.000444
N             9.800000            -4.849742             0.034750
H             9.650000            -2.684679             0.017426
C            11.200000            -4.849742             0.050262
C             9.800000            -7.274613             0.065847
C            11.200000            -7.274613             0.000655
C            11.900000            -6.062178             0.063117
H            11.750000            -3.897114             0.028482
C            13.300000            -6.062178             0.004463
C            11.900000            -8.487049             0.025443
C            13.300000            -8.487049             0.051684
C            14.000000            -7.274613             0.046613
H            13.850000            -5.109550             0.081464
H            13.850000            -9.439677             0.040034
H            15.100000            -7.274613             0.029413
C            -2.800000             0.000000             0.067586
C            -3.500000            -1.212436             0.007085
C            -2.800000            -2.424871             0.084746
C            -1.400000            -2.424871             0.032535
H            -3.350000             0.952628             0.001562
C            -0.700000            -3.637307             0.038035
C             0.700000            -3.637307             0.071640
C             1.400000            -4.849742             0.059770
C             2.800000            -4.849742             0.015470
C             3.500000            -6.062178             0.085188
C             4.900000            -6.062178             0.077270
C             5.600000            -7.274613             0.056571
C             7.000000            -7.274613             0.085029
C             7.700000            -8.487049             0.081928
C             9.100000            -8.487049             0.077805
C             9.800000            -9.699485             0.022534
C            11.200000            -9.699485             0.064542
H            11.750000           -10.652112             0.006113
C            -4.900000            -1.212436             0.090045
C            -5.600000            -2.424871             0.029121
C            -4.900000            -3.637307             0.052150
C            -3.500000            -3.637307             0.059613
H            -5.450000            -0.259808             0.016874
C            -2.800000            -4.849742             0.082417
C            -1.400000            -4.849742             0.037656
C            -0.700000            -6.062178             0.036309
C             0.700000            -6.062178             0.048112
C             1.400000            -7.274613             0.004280
C             2.800000            -7.274613             0.044808
C             3.500000            -8.487049             0.025116
C             4.900000            -8.487049             0.026775
C             5.600000            -9.699485             0.043927
C             7.000000            -9.699485             0.072668
C             7.700000           -10.911920             0.040725
C             9.100000           -10.911920             0.022076
H             9.650000           -11.864548             0.036831
C            -7.000000            -2.424871             0.097720
C            -7.700000            -3.637307             0.084531
C            -7.000000            -4.849742             0.031679
C            -5.600000            -4.849742             0.090402
H            -7.550000            -1.472243             0.097906
H            -8.800000            -3.637307             0.055881
H            -7.550000            -5.802370             0.002137
C            -4.900000            -6.062178             0.063527
C            -3.500000            -6.062178             0.082456
H            -5.450000            -7.014806             0.095528
C            -2.800000            -7.274613             0.002188
C            -1.400000            -7.274613             0.064631
H            -3.350000            -8.227241             0.046120
C            -0.700000            -8.487049             0.061698
C             0.700000            -8.487049             0.008440
H            -1.250000            -9.439677             0.022648
C             1.400000            -9.699485             0.032140
C             2.800000            -9.699485             0.076757
H             0.850000           -10.652112             0.033947
C             3.500000           -10.911920             0.047752
C             4.900000           -10.911920             0.087546
H             2.950000           -11.864548             0.063335
C             5.600000           -12.124356             0.006509
C             7.000000           -12.124356             0.058191
H             5.050000           -13.076984             0.045405
H             7.550000           -13.076984             0.099085
