102
isomero_19_12
C             0.700000             1.212436             0.068346
C            -0.700000             1.212436             0.053234
C            -1.400000             0.000000             0.002457
C            -0.700000            -1.212436             0.071123
C             0.700000            -1.212436             0.095045
C             1.400000            -0.000000             0.024123
H             1.250000             2.165064             0.011148
H            -1.250000             2.165064             0.003764
C             2.800000             0.000000             0.012883
C             1.400000            -2.424871             0.096792
C             2.800000            -2.424871             0.051662
C             3.500000            -1.212436             0.059246
H             3.350000             0.952628             0.073528
C             4.900000            -1.212436             0.053135
C             3.500000            -3.637307             0.094816
C             4.900000            -3.637307             0.038123
C             5.600000            -2.424871             0.056533
H             5.450000            -0.259808             0.010505
C             7.000000            -2.424871             0.063035
C             5.600000            -4.849742             0.036898
C             7.000000            -4.849742             0.071007
C             7.700000            -3.637307             0.071761
H             7.550000            -1.472243             0.005876
C             9.100000            -3.637307             0.089323
C             7.700000            -6.062178             0.093152
C             9.100000            -6.062178             0.085552
C             9.800000            -4.849742             0.018638
H             9.650000            -2.684679             0.031306
C            11.200000            -4.849742             0.042344
C             9.800000            -7.274613             0.040268
C            11.200000            -7.274613             0.010014
C            11.900000            -6.062178             0.027644
H            11.750000            -3.897114             0.037670
C            13.300000            -6.062178             0.099360
C            11.900000            -8.487049             0.042723
C            13.300000            -8.487049             0.026934
C            14.000000            -7.274613             0.004273
H            13.850000            -5.109550             0.001289
H            13.850000            -9.439677             0.001541
H            15.100000            -7.274613             0.009988
C            -2.800000             0.000000             0.063638
C            -3.500000            -1.212436             0.004801
C            -2.800000            -2.424871             0.090996
C            -1.400000            -2.424871             0.039525
H            -3.350000             0.952628             0.029669
C            -0.700000            -3.637307             0.050106
C             0.700000            -3.637307             0.043839
C             1.400000            -4.849742             0.005900
C             2.800000            -4.849742             0.089209
C             3.500000            -6.062178             0.099112
C             4.900000            -6.062178             0.013982
C             5.600000            -7.274613             0.070366
C             7.000000            -7.274613             0.068368
C             7.700000            -8.487049             0.093172
C             9.100000            -8.487049             0.028400
C             9.800000            -9.699485             0.045164
C            11.200000            -9.699485             0.087657
H            11.750000           -10.652112             0.019783
N            -4.900000            -1.212436             0.057238
B            -5.600000            -2.424871             0.040104
C            -4.900000            -3.637307             0.041207
C            -3.500000            -3.637307             0.018888
H            -5.450000            -0.259808             0.069782
C            -2.800000            -4.849742             0.070336
C            -1.400000            -4.849742             0.089124
C            -0.700000            -6.062178             0.016189
C             0.700000            -6.062178             0.026572
C             1.400000            -7.274613             0.041966
C             2.800000            -7.274613             0.095164
C             3.500000            -8.487049             0.071847
C             4.900000            -8.487049             0.012920
C             5.600000            -9.699485             0.091457
C             7.000000            -9.699485             0.018519
C             7.700000           -10.911920             0.029172
C             9.100000           -10.911920             0.062754
H             9.650000           -11.864548             0.006439
C            -7.000000            -2.424871             0.083958
C            -7.700000            -3.637307             0.088815
C            -7.000000            -4.849742             0.094736
C            -5.600000            -4.849742             0.035391
H            -7.550000            -1.472243             0.043636
H            -8.800000            -3.637307             0.077571
H            -7.550000            -5.802370             0.074392
C            -4.900000            -6.062178             0.076312
C            -3.500000            -6.062178             0.055075
H            -5.450000            -7.014806             0.078345
C            -2.800000            -7.274613             0.084200
C            -1.400000            -7.274613             0.051880
H            -3.350000            -8.227241             0.047710
C            -0.700000            -8.487049             0.043989
C             0.700000            -8.487049             0.071418
H            -1.250000            -9.439677             0.075253
C             1.400000            -9.699485             0.080736
C             2.800000            -9.699485             0.092992
H             0.850000           -10.652112             0.046180
C             3.500000           -10.911920             0.097580
C             4.900000           -10.911920             0.057122
H             2.950000           -11.864548             0.035132
C             5.600000           -12.124356             0.013178
C             7.000000           -12.124356             0.052202
H             5.050000           -13.076984             0.007881
H             7.550000           -13.076984             0.057622
