102
isomero_34_45
C             0.700000             1.212436             0.034395
C            -0.700000             1.212436             0.024149
C            -1.400000             0.000000             0.016351
C            -0.700000            -1.212436             0.065114
C             0.700000            -1.212436             0.021395
C             1.400000            -0.000000             0.037721
H             1.250000             2.165064             0.071032
H            -1.250000             2.165064             0.057143
C             2.800000             0.000000             0.061110
C             1.400000            -2.424871             0.037070
C             2.800000            -2.424871             0.009023
C             3.500000            -1.212436             0.093600
H             3.350000             0.952628             0.083765
C             4.900000            -1.212436             0.092289
C             3.500000            -3.637307             0.034462
C             4.900000            -3.637307             0.034595
C             5.600000            -2.424871             0.030059
H             5.450000            -0.259808             0.069432
C             7.000000            -2.424871             0.075823
C             5.600000            -4.849742             0.011252
C             7.000000            -4.849742             0.078758
C             7.700000            -3.637307             0.027146
H             7.550000            -1.472243             0.051844
C             9.100000            -3.637307             0.028604
C             7.700000            -6.062178             0.013603
C             9.100000            -6.062178             0.062248
C             9.800000            -4.849742             0.046854
H             9.650000            -2.684679             0.053249
C            11.200000            -4.849742             0.044445
C             9.800000            -7.274613             0.080803
C            11.200000            -7.274613             0.066011
C            11.900000            -6.062178             0.099628
H            11.750000            -3.897114             0.042551
C            13.300000            -6.062178             0.031185
C            11.900000            -8.487049             0.018228
C            13.300000            -8.487049             0.069276
C            14.000000            -7.274613             0.029842
H            13.850000            -5.109550             0.044422
H            13.850000            -9.439677             0.039744
H            15.100000            -7.274613             0.088961
C            -2.800000             0.000000             0.036280
C            -3.500000            -1.212436             0.018513
C            -2.800000            -2.424871             0.092108
C            -1.400000            -2.424871             0.000701
H            -3.350000             0.952628             0.050502
C            -0.700000            -3.637307             0.085953
C             0.700000            -3.637307             0.026378
C             1.400000            -4.849742             0.048829
B             2.800000            -4.849742             0.054999
N             3.500000            -6.062178             0.013145
C             4.900000            -6.062178             0.026201
C             5.600000            -7.274613             0.033788
C             7.000000            -7.274613             0.061393
C             7.700000            -8.487049             0.081652
C             9.100000            -8.487049             0.043313
C             9.800000            -9.699485             0.001814
C            11.200000            -9.699485             0.018561
H            11.750000           -10.652112             0.067735
C            -4.900000            -1.212436             0.069121
C            -5.600000            -2.424871             0.014902
C            -4.900000            -3.637307             0.054314
C            -3.500000            -3.637307             0.008899
H            -5.450000            -0.259808             0.049560
C            -2.800000            -4.849742             0.038095
C            -1.400000            -4.849742             0.069901
C            -0.700000            -6.062178             0.073628
C             0.700000            -6.062178             0.035839
C             1.400000            -7.274613             0.097685
C             2.800000            -7.274613             0.020023
C             3.500000            -8.487049             0.022383
C             4.900000            -8.487049             0.079755
C             5.600000            -9.699485             0.036357
C             7.000000            -9.699485             0.016633
C             7.700000           -10.911920             0.048042
C             9.100000           -10.911920             0.047446
H             9.650000           -11.864548             0.015689
C            -7.000000            -2.424871             0.031875
C            -7.700000            -3.637307             0.004751
C            -7.000000            -4.849742             0.026270
C            -5.600000            -4.849742             0.065680
H            -7.550000            -1.472243             0.041641
H            -8.800000            -3.637307             0.026851
H            -7.550000            -5.802370             0.050949
C            -4.900000            -6.062178             0.027192
C            -3.500000            -6.062178             0.078352
H            -5.450000            -7.014806             0.015142
C            -2.800000            -7.274613             0.043771
C            -1.400000            -7.274613             0.061746
H            -3.350000            -8.227241             0.075857
C            -0.700000            -8.487049             0.045425
C             0.700000            -8.487049             0.049293
H            -1.250000            -9.439677             0.043856
C             1.400000            -9.699485             0.048085
C             2.800000            -9.699485             0.042545
H             0.850000           -10.652112             0.027433
C             3.500000           -10.911920             0.036322
C             4.900000           -10.911920             0.057565
H             2.950000           -11.864548             0.068595
C             5.600000           -12.124356             0.086201
C             7.000000           -12.124356             0.033539
H             5.050000           -13.076984             0.008515
H             7.550000           -13.076984             0.078234
