102
isomero_11_18
C             0.700000             1.212436             0.053802
C            -0.700000             1.212436             0.074402
C            -1.400000             0.000000             0.017421
C            -0.700000            -1.212436             0.073524
C             0.700000            -1.212436             0.065081
C             1.400000            -0.000000             0.081534
H             1.250000             2.165064             0.094254
H            -1.250000             2.165064             0.010904
C             2.800000             0.000000             0.073679
C             1.400000            -2.424871             0.061253
C             2.800000            -2.424871             0.031807
C             3.500000            -1.212436             0.078860
H             3.350000             0.952628             0.007360
C             4.900000            -1.212436             0.032133
C             3.500000            -3.637307             0.002624
C             4.900000            -3.637307             0.047140
C             5.600000            -2.424871             0.067401
H             5.450000            -0.259808             0.021607
C             7.000000            -2.424871             0.087374
C             5.600000            -4.849742             0.036206
C             7.000000            -4.849742             0.066528
C             7.700000            -3.637307             0.063319
H             7.550000            -1.472243             0.013534
C             9.100000            -3.637307             0.021165
C             7.700000            -6.062178             0.013304
C             9.100000            -6.062178             0.080549
C             9.800000            -4.849742             0.007253
H             9.650000            -2.684679             0.003764
C            11.200000            -4.849742             0.079635
C             9.800000            -7.274613             0.000653
C            11.200000            -7.274613             0.005386
C            11.900000            -6.062178             0.070723
H            11.750000            -3.897114             0.046019
C            13.300000            -6.062178             0.069994
C            11.900000            -8.487049             0.010762
C            13.300000            -8.487049             0.086846
C            14.000000            -7.274613             0.081630
H            13.850000            -5.109550             0.066517
H            13.850000            -9.439677             0.061488
H            15.100000            -7.274613             0.099902
C            -2.800000             0.000000             0.002685
B            -3.500000            -1.212436             0.078223
N            -2.800000            -2.424871             0.067138
C            -1.400000            -2.424871             0.090256
H            -3.350000             0.952628             0.071968
C            -0.700000            -3.637307             0.007385
C             0.700000            -3.637307             0.041926
C             1.400000            -4.849742             0.090894
C             2.800000            -4.849742             0.014811
C             3.500000            -6.062178             0.009084
C             4.900000            -6.062178             0.050799
C             5.600000            -7.274613             0.044140
C             7.000000            -7.274613             0.083252
C             7.700000            -8.487049             0.003577
C             9.100000            -8.487049             0.008323
C             9.800000            -9.699485             0.098795
C            11.200000            -9.699485             0.003645
H            11.750000           -10.652112             0.022737
C            -4.900000            -1.212436             0.091821
C            -5.600000            -2.424871             0.079938
C            -4.900000            -3.637307             0.009895
C            -3.500000            -3.637307             0.030029
H            -5.450000            -0.259808             0.073380
C            -2.800000            -4.849742             0.092634
C            -1.400000            -4.849742             0.098503
C            -0.700000            -6.062178             0.019734
C             0.700000            -6.062178             0.064426
C             1.400000            -7.274613             0.009935
C             2.800000            -7.274613             0.020007
C             3.500000            -8.487049             0.033662
C             4.900000            -8.487049             0.075042
C             5.600000            -9.699485             0.018052
C             7.000000            -9.699485             0.064837
C             7.700000           -10.911920             0.018252
C             9.100000           -10.911920             0.062101
H             9.650000           -11.864548             0.075584
C            -7.000000            -2.424871             0.024595
C            -7.700000            -3.637307             0.008871
C            -7.000000            -4.849742             0.083471
C            -5.600000            -4.849742             0.053694
H            -7.550000            -1.472243             0.007814
H            -8.800000            -3.637307             0.047477
H            -7.550000            -5.802370             0.077711
C            -4.900000            -6.062178             0.005531
C            -3.500000            -6.062178             0.055176
H            -5.450000            -7.014806             0.042067
C            -2.800000            -7.274613             0.015098
C            -1.400000            -7.274613             0.099452
H            -3.350000            -8.227241             0.086099
C            -0.700000            -8.487049             0.084160
C             0.700000            -8.487049             0.084737
H            -1.250000            -9.439677             0.079995
C             1.400000            -9.699485             0.046585
C             2.800000            -9.699485             0.049356
H             0.850000           -10.652112             0.017274
C             3.500000           -10.911920             0.013225
C             4.900000           -10.911920             0.084797
H             2.950000           -11.864548             0.048026
C             5.600000           -12.124356             0.092175
C             7.000000           -12.124356             0.012531
H             5.050000           -13.076984             0.064256
H             7.550000           -13.076984             0.015436
