102
isomero_17_26
C             0.700000             1.212436             0.096996
C            -0.700000             1.212436             0.055660
C            -1.400000             0.000000             0.040807
C            -0.700000            -1.212436             0.038636
C             0.700000            -1.212436             0.019732
C             1.400000            -0.000000             0.043976
H             1.250000             2.165064             0.028841
H            -1.250000             2.165064             0.077431
C             2.800000             0.000000             0.039419
C             1.400000            -2.424871             0.099492
C             2.800000            -2.424871             0.048520
C             3.500000            -1.212436             0.047262
H             3.350000             0.952628             0.021981
C             4.900000            -1.212436             0.056272
C             3.500000            -3.637307             0.047937
C             4.900000            -3.637307             0.068021
C             5.600000            -2.424871             0.050350
H             5.450000            -0.259808             0.063042
C             7.000000            -2.424871             0.098019
C             5.600000            -4.849742             0.077894
C             7.000000            -4.849742             0.007387
C             7.700000            -3.637307             0.071475
H             7.550000            -1.472243             0.002344
C             9.100000            -3.637307             0.023323
C             7.700000            -6.062178             0.072111
C             9.100000            -6.062178             0.087063
C             9.800000            -4.849742             0.024182
H             9.650000            -2.684679             0.013252
C            11.200000            -4.849742             0.080724
C             9.800000            -7.274613             0.067708
C            11.200000            -7.274613             0.076571
C            11.900000            -6.062178             0.030835
H            11.750000            -3.897114             0.052913
C            13.300000            -6.062178             0.057326
C            11.900000            -8.487049             0.079878
C            13.300000            -8.487049             0.085646
C            14.000000            -7.274613             0.070738
H            13.850000            -5.109550             0.006134
H            13.850000            -9.439677             0.028234
H            15.100000            -7.274613             0.033837
C            -2.800000             0.000000             0.021115
C            -3.500000            -1.212436             0.076327
C            -2.800000            -2.424871             0.072666
B            -1.400000            -2.424871             0.044131
H            -3.350000             0.952628             0.012208
N            -0.700000            -3.637307             0.070014
C             0.700000            -3.637307             0.097435
C             1.400000            -4.849742             0.032257
C             2.800000            -4.849742             0.079210
C             3.500000            -6.062178             0.008763
C             4.900000            -6.062178             0.065117
C             5.600000            -7.274613             0.090990
C             7.000000            -7.274613             0.007299
C             7.700000            -8.487049             0.040538
C             9.100000            -8.487049             0.084547
C             9.800000            -9.699485             0.047250
C            11.200000            -9.699485             0.092597
H            11.750000           -10.652112             0.069126
C            -4.900000            -1.212436             0.019692
C            -5.600000            -2.424871             0.054159
C            -4.900000            -3.637307             0.019408
C            -3.500000            -3.637307             0.026467
H            -5.450000            -0.259808             0.096287
C            -2.800000            -4.849742             0.025456
C            -1.400000            -4.849742             0.006151
C            -0.700000            -6.062178             0.032734
C             0.700000            -6.062178             0.071555
C             1.400000            -7.274613             0.004961
C             2.800000            -7.274613             0.053983
C             3.500000            -8.487049             0.058601
C             4.900000            -8.487049             0.011296
C             5.600000            -9.699485             0.094802
C             7.000000            -9.699485             0.070437
C             7.700000           -10.911920             0.044571
C             9.100000           -10.911920             0.065653
H             9.650000           -11.864548             0.038688
C            -7.000000            -2.424871             0.016527
C            -7.700000            -3.637307             0.055366
C            -7.000000            -4.849742             0.088300
C            -5.600000            -4.849742             0.038521
H            -7.550000            -1.472243             0.076330
H            -8.800000            -3.637307             0.023173
H            -7.550000            -5.802370             0.085285
C            -4.900000            -6.062178             0.047637
C            -3.500000            -6.062178             0.064525
H            -5.450000            -7.014806             0.024532
C            -2.800000            -7.274613             0.070632
C            -1.400000            -7.274613             0.061935
H            -3.350000            -8.227241             0.094038
C            -0.700000            -8.487049             0.017027
C             0.700000            -8.487049             0.066697
H            -1.250000            -9.439677             0.056147
C             1.400000            -9.699485             0.058290
C             2.800000            -9.699485             0.008147
H             0.850000           -10.652112             0.026491
C             3.500000           -10.911920             0.060701
C             4.900000           -10.911920             0.041265
H             2.950000           -11.864548             0.054698
C             5.600000           -12.124356             0.076553
C             7.000000           -12.124356             0.021332
H             5.050000           -13.076984             0.061072
H             7.550000           -13.076984             0.055306
