102
isomero_3_4
C             0.700000             1.212436             0.084228
C            -0.700000             1.212436             0.012264
C            -1.400000             0.000000             0.070504
C            -0.700000            -1.212436             0.015529
C             0.700000            -1.212436             0.070821
N             1.400000            -0.000000             0.003795
H             1.250000             2.165064             0.089851
H            -1.250000             2.165064             0.023727
B             2.800000             0.000000             0.054641
C             1.400000            -2.424871             0.079996
C             2.800000            -2.424871             0.090222
C             3.500000            -1.212436             0.087106
H             3.350000             0.952628             0.059800
C             4.900000            -1.212436             0.031366
C             3.500000            -3.637307             0.004706
C             4.900000            -3.637307             0.041014
C             5.600000            -2.424871             0.012525
H             5.450000            -0.259808             0.018149
C             7.000000            -2.424871             0.082109
C             5.600000            -4.849742             0.000326
C             7.000000            -4.849742             0.004891
C             7.700000            -3.637307             0.077045
H             7.550000            -1.472243             0.030131
C             9.100000            -3.637307             0.062071
C             7.700000            -6.062178             0.011986
C             9.100000            -6.062178             0.086885
C             9.800000            -4.849742             0.090076
H             9.650000            -2.684679             0.030340
C            11.200000            -4.849742             0.041758
C             9.800000            -7.274613             0.066302
C            11.200000            -7.274613             0.012444
C            11.900000            -6.062178             0.098115
H            11.750000            -3.897114             0.029994
C            13.300000            -6.062178             0.054192
C            11.900000            -8.487049             0.001306
C            13.300000            -8.487049             0.084510
C            14.000000            -7.274613             0.038864
H            13.850000            -5.109550             0.052098
H            13.850000            -9.439677             0.011792
H            15.100000            -7.274613             0.082340
C            -2.800000             0.000000             0.086525
C            -3.500000            -1.212436             0.083807
C            -2.800000            -2.424871             0.061763
C            -1.400000            -2.424871             0.031770
H            -3.350000             0.952628             0.099883
C            -0.700000            -3.637307             0.057902
C             0.700000            -3.637307             0.069852
C             1.400000            -4.849742             0.098806
C             2.800000            -4.849742             0.055953
C             3.500000            -6.062178             0.041040
C             4.900000            -6.062178             0.001329
C             5.600000            -7.274613             0.098391
C             7.000000            -7.274613             0.057288
C             7.700000            -8.487049             0.031415
C             9.100000            -8.487049             0.073503
C             9.800000            -9.699485             0.019496
C            11.200000            -9.699485             0.028940
H            11.750000           -10.652112             0.032589
C            -4.900000            -1.212436             0.068761
C            -5.600000            -2.424871             0.076507
C            -4.900000            -3.637307             0.063444
C            -3.500000            -3.637307             0.009950
H            -5.450000            -0.259808             0.066798
C            -2.800000            -4.849742             0.033950
C            -1.400000            -4.849742             0.079402
C            -0.700000            -6.062178             0.038105
C             0.700000            -6.062178             0.027398
C             1.400000            -7.274613             0.087467
C             2.800000            -7.274613             0.098729
C             3.500000            -8.487049             0.096457
C             4.900000            -8.487049             0.072106
C             5.600000            -9.699485             0.056390
C             7.000000            -9.699485             0.053905
C             7.700000           -10.911920             0.052333
C             9.100000           -10.911920             0.040088
H             9.650000           -11.864548             0.015943
C            -7.000000            -2.424871             0.085957
C            -7.700000            -3.637307             0.000091
C            -7.000000            -4.849742             0.056953
C            -5.600000            -4.849742             0.080091
H            -7.550000            -1.472243             0.003974
H            -8.800000            -3.637307             0.037395
H            -7.550000            -5.802370             0.066212
C            -4.900000            -6.062178             0.039013
C            -3.500000            -6.062178             0.057736
H            -5.450000            -7.014806             0.029831
C            -2.800000            -7.274613             0.073610
C            -1.400000            -7.274613             0.092579
H            -3.350000            -8.227241             0.097822
C            -0.700000            -8.487049             0.002565
C             0.700000            -8.487049             0.091273
H            -1.250000            -9.439677             0.040049
C             1.400000            -9.699485             0.064299
C             2.800000            -9.699485             0.081812
H             0.850000           -10.652112             0.052200
C             3.500000           -10.911920             0.001024
C             4.900000           -10.911920             0.099933
H             2.950000           -11.864548             0.080335
C             5.600000           -12.124356             0.070870
C             7.000000           -12.124356             0.064689
H             5.050000           -13.076984             0.052827
H             7.550000           -13.076984             0.035617
