102
isomero_50_59
C             0.700000             1.212436             0.006150
C            -0.700000             1.212436             0.011698
C            -1.400000             0.000000             0.033035
C            -0.700000            -1.212436             0.069004
C             0.700000            -1.212436             0.050246
C             1.400000            -0.000000             0.091705
H             1.250000             2.165064             0.022132
H            -1.250000             2.165064             0.011897
C             2.800000             0.000000             0.051782
C             1.400000            -2.424871             0.057082
C             2.800000            -2.424871             0.054932
C             3.500000            -1.212436             0.063976
H             3.350000             0.952628             0.026031
C             4.900000            -1.212436             0.050388
C             3.500000            -3.637307             0.007756
C             4.900000            -3.637307             0.022591
C             5.600000            -2.424871             0.068660
H             5.450000            -0.259808             0.039536
C             7.000000            -2.424871             0.058779
C             5.600000            -4.849742             0.041047
C             7.000000            -4.849742             0.019998
C             7.700000            -3.637307             0.027905
H             7.550000            -1.472243             0.075633
C             9.100000            -3.637307             0.046371
C             7.700000            -6.062178             0.063370
C             9.100000            -6.062178             0.024881
C             9.800000            -4.849742             0.065300
H             9.650000            -2.684679             0.046979
C            11.200000            -4.849742             0.046102
C             9.800000            -7.274613             0.040984
C            11.200000            -7.274613             0.075735
C            11.900000            -6.062178             0.009937
H            11.750000            -3.897114             0.088572
C            13.300000            -6.062178             0.077723
C            11.900000            -8.487049             0.037864
N            13.300000            -8.487049             0.036950
B            14.000000            -7.274613             0.043384
H            13.850000            -5.109550             0.076730
H            13.850000            -9.439677             0.077942
H            15.100000            -7.274613             0.046371
C            -2.800000             0.000000             0.068935
C            -3.500000            -1.212436             0.092949
C            -2.800000            -2.424871             0.041626
C            -1.400000            -2.424871             0.075290
H            -3.350000             0.952628             0.002254
C            -0.700000            -3.637307             0.085121
C             0.700000            -3.637307             0.011956
C             1.400000            -4.849742             0.013588
C             2.800000            -4.849742             0.032631
C             3.500000            -6.062178             0.088247
C             4.900000            -6.062178             0.051109
C             5.600000            -7.274613             0.059098
C             7.000000            -7.274613             0.097259
C             7.700000            -8.487049             0.053775
C             9.100000            -8.487049             0.046866
C             9.800000            -9.699485             0.043461
C            11.200000            -9.699485             0.021792
H            11.750000           -10.652112             0.068300
C            -4.900000            -1.212436             0.092565
C            -5.600000            -2.424871             0.027220
C            -4.900000            -3.637307             0.002208
C            -3.500000            -3.637307             0.061713
H            -5.450000            -0.259808             0.003186
C            -2.800000            -4.849742             0.088864
C            -1.400000            -4.849742             0.029268
C            -0.700000            -6.062178             0.004983
C             0.700000            -6.062178             0.021697
C             1.400000            -7.274613             0.011070
C             2.800000            -7.274613             0.060128
C             3.500000            -8.487049             0.018749
C             4.900000            -8.487049             0.083277
C             5.600000            -9.699485             0.043176
C             7.000000            -9.699485             0.073227
C             7.700000           -10.911920             0.018939
C             9.100000           -10.911920             0.019854
H             9.650000           -11.864548             0.024836
C            -7.000000            -2.424871             0.001209
C            -7.700000            -3.637307             0.044468
C            -7.000000            -4.849742             0.055208
C            -5.600000            -4.849742             0.042257
H            -7.550000            -1.472243             0.066715
H            -8.800000            -3.637307             0.028186
H            -7.550000            -5.802370             0.089010
C            -4.900000            -6.062178             0.081622
C            -3.500000            -6.062178             0.073989
H            -5.450000            -7.014806             0.076050
C            -2.800000            -7.274613             0.044036
C            -1.400000            -7.274613             0.059046
H            -3.350000            -8.227241             0.006414
C            -0.700000            -8.487049             0.030036
C             0.700000            -8.487049             0.034447
H            -1.250000            -9.439677             0.014274
C             1.400000            -9.699485             0.071138
C             2.800000            -9.699485             0.011169
H             0.850000           -10.652112             0.090923
C             3.500000           -10.911920             0.087377
C             4.900000           -10.911920             0.097256
H             2.950000           -11.864548             0.054003
C             5.600000           -12.124356             0.063855
C             7.000000           -12.124356             0.099297
H             5.050000           -13.076984             0.054235
H             7.550000           -13.076984             0.046267
