102
isomero_18_27
C             0.700000             1.212436             0.042318
C            -0.700000             1.212436             0.066567
C            -1.400000             0.000000             0.092103
C            -0.700000            -1.212436             0.057983
C             0.700000            -1.212436             0.014252
C             1.400000            -0.000000             0.022141
H             1.250000             2.165064             0.060708
H            -1.250000             2.165064             0.013117
C             2.800000             0.000000             0.073950
C             1.400000            -2.424871             0.050982
C             2.800000            -2.424871             0.037282
C             3.500000            -1.212436             0.005298
H             3.350000             0.952628             0.096413
C             4.900000            -1.212436             0.004419
C             3.500000            -3.637307             0.093969
C             4.900000            -3.637307             0.016329
C             5.600000            -2.424871             0.099765
H             5.450000            -0.259808             0.010079
C             7.000000            -2.424871             0.082434
C             5.600000            -4.849742             0.068620
C             7.000000            -4.849742             0.095925
C             7.700000            -3.637307             0.048495
H             7.550000            -1.472243             0.078798
C             9.100000            -3.637307             0.075502
C             7.700000            -6.062178             0.072283
C             9.100000            -6.062178             0.026462
C             9.800000            -4.849742             0.068840
H             9.650000            -2.684679             0.093232
C            11.200000            -4.849742             0.009025
C             9.800000            -7.274613             0.057228
C            11.200000            -7.274613             0.057900
C            11.900000            -6.062178             0.082528
H            11.750000            -3.897114             0.033321
C            13.300000            -6.062178             0.000632
C            11.900000            -8.487049             0.067123
C            13.300000            -8.487049             0.023951
C            14.000000            -7.274613             0.086683
H            13.850000            -5.109550             0.085098
H            13.850000            -9.439677             0.097849
H            15.100000            -7.274613             0.082426
C            -2.800000             0.000000             0.004931
C            -3.500000            -1.212436             0.089091
B            -2.800000            -2.424871             0.034501
C            -1.400000            -2.424871             0.008968
H            -3.350000             0.952628             0.092670
C            -0.700000            -3.637307             0.085504
C             0.700000            -3.637307             0.082506
C             1.400000            -4.849742             0.026531
C             2.800000            -4.849742             0.076540
C             3.500000            -6.062178             0.017949
C             4.900000            -6.062178             0.054054
C             5.600000            -7.274613             0.084083
C             7.000000            -7.274613             0.018603
C             7.700000            -8.487049             0.098517
C             9.100000            -8.487049             0.083630
C             9.800000            -9.699485             0.054369
C            11.200000            -9.699485             0.080670
H            11.750000           -10.652112             0.037258
C            -4.900000            -1.212436             0.042524
C            -5.600000            -2.424871             0.071478
C            -4.900000            -3.637307             0.015712
N            -3.500000            -3.637307             0.053893
H            -5.450000            -0.259808             0.056126
C            -2.800000            -4.849742             0.051715
C            -1.400000            -4.849742             0.097190
C            -0.700000            -6.062178             0.022229
C             0.700000            -6.062178             0.020528
C             1.400000            -7.274613             0.019222
C             2.800000            -7.274613             0.036314
C             3.500000            -8.487049             0.048693
C             4.900000            -8.487049             0.059784
C             5.600000            -9.699485             0.090209
C             7.000000            -9.699485             0.008620
C             7.700000           -10.911920             0.081286
C             9.100000           -10.911920             0.046135
H             9.650000           -11.864548             0.009570
C            -7.000000            -2.424871             0.013519
C            -7.700000            -3.637307             0.021310
C            -7.000000            -4.849742             0.024735
C            -5.600000            -4.849742             0.024568
H            -7.550000            -1.472243             0.048057
H            -8.800000            -3.637307             0.003725
H            -7.550000            -5.802370             0.072310
C            -4.900000            -6.062178             0.086597
C            -3.500000            -6.062178             0.017992
H            -5.450000            -7.014806             0.097672
C            -2.800000            -7.274613             0.033256
C            -1.400000            -7.274613             0.002338
H            -3.350000            -8.227241             0.053461
C            -0.700000            -8.487049             0.032983
C             0.700000            -8.487049             0.025160
H            -1.250000            -9.439677             0.007098
C             1.400000            -9.699485             0.008561
C             2.800000            -9.699485             0.051395
H             0.850000           -10.652112             0.059083
C             3.500000           -10.911920             0.075262
C             4.900000           -10.911920             0.051052
H             2.950000           -11.864548             0.055619
C             5.600000           -12.124356             0.028152
C             7.000000           -12.124356             0.078072
H             5.050000           -13.076984             0.044344
H             7.550000           -13.076984             0.085706
