102
isomero_20_29
C             0.700000             1.212436             0.010845
C            -0.700000             1.212436             0.078971
C            -1.400000             0.000000             0.059180
C            -0.700000            -1.212436             0.091505
C             0.700000            -1.212436             0.082839
C             1.400000            -0.000000             0.000076
H             1.250000             2.165064             0.065979
H            -1.250000             2.165064             0.020479
C             2.800000             0.000000             0.088096
C             1.400000            -2.424871             0.030383
C             2.800000            -2.424871             0.009769
C             3.500000            -1.212436             0.008864
H             3.350000             0.952628             0.036000
C             4.900000            -1.212436             0.011899
C             3.500000            -3.637307             0.052239
C             4.900000            -3.637307             0.059749
C             5.600000            -2.424871             0.058428
H             5.450000            -0.259808             0.024164
C             7.000000            -2.424871             0.064000
C             5.600000            -4.849742             0.001226
C             7.000000            -4.849742             0.089074
C             7.700000            -3.637307             0.055894
H             7.550000            -1.472243             0.040932
C             9.100000            -3.637307             0.070073
C             7.700000            -6.062178             0.046430
C             9.100000            -6.062178             0.044800
C             9.800000            -4.849742             0.088223
H             9.650000            -2.684679             0.097726
C            11.200000            -4.849742             0.059191
C             9.800000            -7.274613             0.061961
C            11.200000            -7.274613             0.068854
C            11.900000            -6.062178             0.000157
H            11.750000            -3.897114             0.003894
C            13.300000            -6.062178             0.077559
C            11.900000            -8.487049             0.092068
C            13.300000            -8.487049             0.064771
C            14.000000            -7.274613             0.062958
H            13.850000            -5.109550             0.057303
H            13.850000            -9.439677             0.062046
H            15.100000            -7.274613             0.007949
C            -2.800000             0.000000             0.018411
C            -3.500000            -1.212436             0.035378
C            -2.800000            -2.424871             0.011911
C            -1.400000            -2.424871             0.086424
H            -3.350000             0.952628             0.040839
C            -0.700000            -3.637307             0.082837
C             0.700000            -3.637307             0.037109
C             1.400000            -4.849742             0.086466
C             2.800000            -4.849742             0.028290
C             3.500000            -6.062178             0.036846
C             4.900000            -6.062178             0.087988
C             5.600000            -7.274613             0.042478
C             7.000000            -7.274613             0.006841
C             7.700000            -8.487049             0.093805
C             9.100000            -8.487049             0.018593
C             9.800000            -9.699485             0.098296
C            11.200000            -9.699485             0.015970
H            11.750000           -10.652112             0.086380
C            -4.900000            -1.212436             0.064188
C            -5.600000            -2.424871             0.030620
C            -4.900000            -3.637307             0.002421
C            -3.500000            -3.637307             0.094801
H            -5.450000            -0.259808             0.056893
C            -2.800000            -4.849742             0.025772
C            -1.400000            -4.849742             0.016664
C            -0.700000            -6.062178             0.044034
C             0.700000            -6.062178             0.018033
C             1.400000            -7.274613             0.007162
C             2.800000            -7.274613             0.037777
C             3.500000            -8.487049             0.044941
C             4.900000            -8.487049             0.033873
C             5.600000            -9.699485             0.042073
C             7.000000            -9.699485             0.016349
C             7.700000           -10.911920             0.015439
C             9.100000           -10.911920             0.091088
H             9.650000           -11.864548             0.021665
B            -7.000000            -2.424871             0.090291
N            -7.700000            -3.637307             0.090809
C            -7.000000            -4.849742             0.047567
C            -5.600000            -4.849742             0.040910
H            -7.550000            -1.472243             0.098026
H            -8.800000            -3.637307             0.071825
H            -7.550000            -5.802370             0.023895
C            -4.900000            -6.062178             0.020226
C            -3.500000            -6.062178             0.069264
H            -5.450000            -7.014806             0.009212
C            -2.800000            -7.274613             0.088626
C            -1.400000            -7.274613             0.037462
H            -3.350000            -8.227241             0.065364
C            -0.700000            -8.487049             0.045575
C             0.700000            -8.487049             0.037257
H            -1.250000            -9.439677             0.054118
C             1.400000            -9.699485             0.060519
C             2.800000            -9.699485             0.015782
H             0.850000           -10.652112             0.081331
C             3.500000           -10.911920             0.027171
C             4.900000           -10.911920             0.023346
H             2.950000           -11.864548             0.076453
C             5.600000           -12.124356             0.048422
C             7.000000           -12.124356             0.005851
H             5.050000           -13.076984             0.016754
H             7.550000           -13.076984             0.099441
