102
isomero_28_19
C             0.700000             1.212436             0.058791
C            -0.700000             1.212436             0.037472
C            -1.400000             0.000000             0.092756
C            -0.700000            -1.212436             0.086640
C             0.700000            -1.212436             0.079199
C             1.400000            -0.000000             0.046073
H             1.250000             2.165064             0.094637
H            -1.250000             2.165064             0.049992
C             2.800000             0.000000             0.001990
C             1.400000            -2.424871             0.030117
C             2.800000            -2.424871             0.092827
C             3.500000            -1.212436             0.023826
H             3.350000             0.952628             0.025895
C             4.900000            -1.212436             0.060154
C             3.500000            -3.637307             0.033619
C             4.900000            -3.637307             0.047407
C             5.600000            -2.424871             0.053036
H             5.450000            -0.259808             0.014410
C             7.000000            -2.424871             0.077206
C             5.600000            -4.849742             0.068889
C             7.000000            -4.849742             0.087466
C             7.700000            -3.637307             0.082012
H             7.550000            -1.472243             0.043076
C             9.100000            -3.637307             0.013761
C             7.700000            -6.062178             0.062833
C             9.100000            -6.062178             0.089922
C             9.800000            -4.849742             0.077253
H             9.650000            -2.684679             0.089612
C            11.200000            -4.849742             0.097335
C             9.800000            -7.274613             0.023022
C            11.200000            -7.274613             0.097287
C            11.900000            -6.062178             0.015121
H            11.750000            -3.897114             0.091408
C            13.300000            -6.062178             0.030405
C            11.900000            -8.487049             0.088749
C            13.300000            -8.487049             0.008767
C            14.000000            -7.274613             0.082514
H            13.850000            -5.109550             0.031367
H            13.850000            -9.439677             0.062899
H            15.100000            -7.274613             0.046744
C            -2.800000             0.000000             0.089877
C            -3.500000            -1.212436             0.085666
C            -2.800000            -2.424871             0.003816
C            -1.400000            -2.424871             0.077392
H            -3.350000             0.952628             0.047275
C            -0.700000            -3.637307             0.016011
C             0.700000            -3.637307             0.073328
C             1.400000            -4.849742             0.004808
C             2.800000            -4.849742             0.096417
C             3.500000            -6.062178             0.059357
C             4.900000            -6.062178             0.059547
C             5.600000            -7.274613             0.006589
C             7.000000            -7.274613             0.040044
C             7.700000            -8.487049             0.078504
C             9.100000            -8.487049             0.085408
C             9.800000            -9.699485             0.034652
C            11.200000            -9.699485             0.079045
H            11.750000           -10.652112             0.089445
C            -4.900000            -1.212436             0.086664
N            -5.600000            -2.424871             0.069043
B            -4.900000            -3.637307             0.038648
C            -3.500000            -3.637307             0.023301
H            -5.450000            -0.259808             0.076453
C            -2.800000            -4.849742             0.025466
C            -1.400000            -4.849742             0.000102
C            -0.700000            -6.062178             0.031914
C             0.700000            -6.062178             0.088747
C             1.400000            -7.274613             0.092672
C             2.800000            -7.274613             0.046136
C             3.500000            -8.487049             0.060557
C             4.900000            -8.487049             0.032586
C             5.600000            -9.699485             0.062576
C             7.000000            -9.699485             0.058356
C             7.700000           -10.911920             0.001245
C             9.100000           -10.911920             0.001801
H             9.650000           -11.864548             0.057241
C            -7.000000            -2.424871             0.019473
C            -7.700000            -3.637307             0.042853
C            -7.000000            -4.849742             0.083043
C            -5.600000            -4.849742             0.084155
H            -7.550000            -1.472243             0.047517
H            -8.800000            -3.637307             0.028404
H            -7.550000            -5.802370             0.046808
C            -4.900000            -6.062178             0.003935
C            -3.500000            -6.062178             0.001915
H            -5.450000            -7.014806             0.041057
C            -2.800000            -7.274613             0.080952
C            -1.400000            -7.274613             0.028318
H            -3.350000            -8.227241             0.045101
C            -0.700000            -8.487049             0.028069
C             0.700000            -8.487049             0.098083
H            -1.250000            -9.439677             0.030268
C             1.400000            -9.699485             0.081516
C             2.800000            -9.699485             0.008156
H             0.850000           -10.652112             0.089506
C             3.500000           -10.911920             0.025061
C             4.900000           -10.911920             0.025357
H             2.950000           -11.864548             0.068481
C             5.600000           -12.124356             0.056899
C             7.000000           -12.124356             0.021376
H             5.050000           -13.076984             0.092010
H             7.550000           -13.076984             0.015637
