102
isomero_18_17
C             0.700000             1.212436             0.007505
C            -0.700000             1.212436             0.046048
C            -1.400000             0.000000             0.006536
C            -0.700000            -1.212436             0.062181
C             0.700000            -1.212436             0.000114
C             1.400000            -0.000000             0.030101
H             1.250000             2.165064             0.004059
H            -1.250000             2.165064             0.035045
C             2.800000             0.000000             0.018577
C             1.400000            -2.424871             0.027761
C             2.800000            -2.424871             0.014288
C             3.500000            -1.212436             0.026174
H             3.350000             0.952628             0.036364
C             4.900000            -1.212436             0.051885
C             3.500000            -3.637307             0.038593
C             4.900000            -3.637307             0.042894
C             5.600000            -2.424871             0.036480
H             5.450000            -0.259808             0.041281
C             7.000000            -2.424871             0.080873
C             5.600000            -4.849742             0.014986
C             7.000000            -4.849742             0.070163
C             7.700000            -3.637307             0.077282
H             7.550000            -1.472243             0.093106
C             9.100000            -3.637307             0.092086
C             7.700000            -6.062178             0.066020
C             9.100000            -6.062178             0.068767
C             9.800000            -4.849742             0.020811
H             9.650000            -2.684679             0.041457
C            11.200000            -4.849742             0.010438
C             9.800000            -7.274613             0.078666
C            11.200000            -7.274613             0.048349
C            11.900000            -6.062178             0.043492
H            11.750000            -3.897114             0.058415
C            13.300000            -6.062178             0.059401
C            11.900000            -8.487049             0.009385
C            13.300000            -8.487049             0.098812
C            14.000000            -7.274613             0.064602
H            13.850000            -5.109550             0.036239
H            13.850000            -9.439677             0.075218
H            15.100000            -7.274613             0.001497
C            -2.800000             0.000000             0.005068
C            -3.500000            -1.212436             0.026181
B            -2.800000            -2.424871             0.099188
N            -1.400000            -2.424871             0.072431
H            -3.350000             0.952628             0.000217
C            -0.700000            -3.637307             0.045209
C             0.700000            -3.637307             0.036491
C             1.400000            -4.849742             0.054245
C             2.800000            -4.849742             0.004439
C             3.500000            -6.062178             0.095238
C             4.900000            -6.062178             0.064617
C             5.600000            -7.274613             0.039969
C             7.000000            -7.274613             0.049286
C             7.700000            -8.487049             0.058447
C             9.100000            -8.487049             0.071918
C             9.800000            -9.699485             0.068671
C            11.200000            -9.699485             0.079805
H            11.750000           -10.652112             0.029837
C            -4.900000            -1.212436             0.078546
C            -5.600000            -2.424871             0.029734
C            -4.900000            -3.637307             0.093867
C            -3.500000            -3.637307             0.012073
H            -5.450000            -0.259808             0.085813
C            -2.800000            -4.849742             0.071398
C            -1.400000            -4.849742             0.077523
C            -0.700000            -6.062178             0.008643
C             0.700000            -6.062178             0.038403
C             1.400000            -7.274613             0.048187
C             2.800000            -7.274613             0.019001
C             3.500000            -8.487049             0.038003
C             4.900000            -8.487049             0.050732
C             5.600000            -9.699485             0.041309
C             7.000000            -9.699485             0.084251
C             7.700000           -10.911920             0.023409
C             9.100000           -10.911920             0.055242
H             9.650000           -11.864548             0.055782
C            -7.000000            -2.424871             0.095927
C            -7.700000            -3.637307             0.018989
C            -7.000000            -4.849742             0.013514
C            -5.600000            -4.849742             0.081143
H            -7.550000            -1.472243             0.031584
H            -8.800000            -3.637307             0.020396
H            -7.550000            -5.802370             0.089570
C            -4.900000            -6.062178             0.094982
C            -3.500000            -6.062178             0.052326
H            -5.450000            -7.014806             0.050904
C            -2.800000            -7.274613             0.089648
C            -1.400000            -7.274613             0.045146
H            -3.350000            -8.227241             0.038551
C            -0.700000            -8.487049             0.055781
C             0.700000            -8.487049             0.021820
H            -1.250000            -9.439677             0.001945
C             1.400000            -9.699485             0.037056
C             2.800000            -9.699485             0.005727
H             0.850000           -10.652112             0.079317
C             3.500000           -10.911920             0.080484
C             4.900000           -10.911920             0.054927
H             2.950000           -11.864548             0.048867
C             5.600000           -12.124356             0.068475
C             7.000000           -12.124356             0.096322
H             5.050000           -13.076984             0.067843
H             7.550000           -13.076984             0.064366
