102
isomero_27_18
C             0.700000             1.212436             0.086354
C            -0.700000             1.212436             0.018096
C            -1.400000             0.000000             0.005055
C            -0.700000            -1.212436             0.072575
C             0.700000            -1.212436             0.077947
C             1.400000            -0.000000             0.026714
H             1.250000             2.165064             0.059151
H            -1.250000             2.165064             0.018157
C             2.800000             0.000000             0.065892
C             1.400000            -2.424871             0.042913
C             2.800000            -2.424871             0.097256
C             3.500000            -1.212436             0.042197
H             3.350000             0.952628             0.022467
C             4.900000            -1.212436             0.080789
C             3.500000            -3.637307             0.061270
C             4.900000            -3.637307             0.001426
C             5.600000            -2.424871             0.075635
H             5.450000            -0.259808             0.024593
C             7.000000            -2.424871             0.058643
C             5.600000            -4.849742             0.040125
C             7.000000            -4.849742             0.015627
C             7.700000            -3.637307             0.069849
H             7.550000            -1.472243             0.082630
C             9.100000            -3.637307             0.010600
C             7.700000            -6.062178             0.023576
C             9.100000            -6.062178             0.065684
C             9.800000            -4.849742             0.070718
H             9.650000            -2.684679             0.029322
C            11.200000            -4.849742             0.027050
C             9.800000            -7.274613             0.032928
C            11.200000            -7.274613             0.047374
C            11.900000            -6.062178             0.026710
H            11.750000            -3.897114             0.058551
C            13.300000            -6.062178             0.089620
C            11.900000            -8.487049             0.089120
C            13.300000            -8.487049             0.029448
C            14.000000            -7.274613             0.022864
H            13.850000            -5.109550             0.089242
H            13.850000            -9.439677             0.055111
H            15.100000            -7.274613             0.037582
C            -2.800000             0.000000             0.037168
C            -3.500000            -1.212436             0.090510
N            -2.800000            -2.424871             0.019467
C            -1.400000            -2.424871             0.028191
H            -3.350000             0.952628             0.064972
C            -0.700000            -3.637307             0.051793
C             0.700000            -3.637307             0.086993
C             1.400000            -4.849742             0.049514
C             2.800000            -4.849742             0.063316
C             3.500000            -6.062178             0.043984
C             4.900000            -6.062178             0.082716
C             5.600000            -7.274613             0.034605
C             7.000000            -7.274613             0.043081
C             7.700000            -8.487049             0.008871
C             9.100000            -8.487049             0.060452
C             9.800000            -9.699485             0.030231
C            11.200000            -9.699485             0.047143
H            11.750000           -10.652112             0.034172
C            -4.900000            -1.212436             0.066163
C            -5.600000            -2.424871             0.003781
C            -4.900000            -3.637307             0.087483
B            -3.500000            -3.637307             0.058922
H            -5.450000            -0.259808             0.083669
C            -2.800000            -4.849742             0.068701
C            -1.400000            -4.849742             0.020656
C            -0.700000            -6.062178             0.004887
C             0.700000            -6.062178             0.041196
C             1.400000            -7.274613             0.034842
C             2.800000            -7.274613             0.000312
C             3.500000            -8.487049             0.015713
C             4.900000            -8.487049             0.076074
C             5.600000            -9.699485             0.027584
C             7.000000            -9.699485             0.069464
C             7.700000           -10.911920             0.018289
C             9.100000           -10.911920             0.041890
H             9.650000           -11.864548             0.089079
C            -7.000000            -2.424871             0.034714
C            -7.700000            -3.637307             0.098763
C            -7.000000            -4.849742             0.047547
C            -5.600000            -4.849742             0.046665
H            -7.550000            -1.472243             0.083860
H            -8.800000            -3.637307             0.072232
H            -7.550000            -5.802370             0.092677
C            -4.900000            -6.062178             0.053584
C            -3.500000            -6.062178             0.077045
H            -5.450000            -7.014806             0.077469
C            -2.800000            -7.274613             0.075625
C            -1.400000            -7.274613             0.061471
H            -3.350000            -8.227241             0.083588
C            -0.700000            -8.487049             0.027637
C             0.700000            -8.487049             0.046773
H            -1.250000            -9.439677             0.034231
C             1.400000            -9.699485             0.051047
C             2.800000            -9.699485             0.090433
H             0.850000           -10.652112             0.054474
C             3.500000           -10.911920             0.038492
C             4.900000           -10.911920             0.097342
H             2.950000           -11.864548             0.000642
C             5.600000           -12.124356             0.024210
C             7.000000           -12.124356             0.016060
H             5.050000           -13.076984             0.051735
H             7.550000           -13.076984             0.079088
