42
isomero_7_3
C             0.700000             1.212436             0.029019
C            -0.700000             1.212436             0.075454
C            -1.400000             0.000000             0.055812
C            -0.700000            -1.212436             0.042779
C             0.700000            -1.212436             0.026719
C             1.400000            -0.000000             0.075374
H             1.250000             2.165064             0.089838
H            -1.250000             2.165064             0.072844
H            -2.500000             0.000000             0.040683
H            -1.250000            -2.165064             0.093832
N             2.800000             0.000000             0.025543
C             1.400000            -2.424871             0.053316
C             2.800000            -2.424871             0.095475
B             3.500000            -1.212436             0.026775
H             3.350000             0.952628             0.025008
H             0.850000            -3.377499             0.092767
C             4.900000            -1.212436             0.006858
C             3.500000            -3.637307             0.029940
C             4.900000            -3.637307             0.059158
C             5.600000            -2.424871             0.020330
H             5.450000            -0.259808             0.063588
H             2.950000            -4.589935             0.079837
C             7.000000            -2.424871             0.050170
C             5.600000            -4.849742             0.065081
C             7.000000            -4.849742             0.079595
C             7.700000            -3.637307             0.023337
H             7.550000            -1.472243             0.060084
H             5.050000            -5.802370             0.011246
C             9.100000            -3.637307             0.051577
C             7.700000            -6.062178             0.083784
C             9.100000            -6.062178             0.092079
C             9.800000            -4.849742             0.049823
H             9.650000            -2.684679             0.027761
H             7.150000            -7.014806             0.065252
C            11.200000            -4.849742             0.091730
C             9.800000            -7.274613             0.050984
C            11.200000            -7.274613             0.097419
C            11.900000            -6.062178             0.019728
H            11.750000            -3.897114             0.011118
H             9.250000            -8.227241             0.029735
H            11.750000            -8.227241             0.039642
H            13.000000            -6.062178             0.042076
