42
isomero_1_2
B             0.700000             1.212436             0.048890
N            -0.700000             1.212436             0.022031
C            -1.400000             0.000000             0.022621
C            -0.700000            -1.212436             0.053679
C             0.700000            -1.212436             0.076211
C             1.400000            -0.000000             0.034757
H             1.250000             2.165064             0.046123
H            -1.250000             2.165064             0.063932
H            -2.500000             0.000000             0.091734
H            -1.250000            -2.165064             0.016157
C             2.800000             0.000000             0.071564
C             1.400000            -2.424871             0.057774
C             2.800000            -2.424871             0.043330
C             3.500000            -1.212436             0.088424
H             3.350000             0.952628             0.039305
H             0.850000            -3.377499             0.017898
C             4.900000            -1.212436             0.063333
C             3.500000            -3.637307             0.062400
C             4.900000            -3.637307             0.032794
C             5.600000            -2.424871             0.080297
H             5.450000            -0.259808             0.099948
H             2.950000            -4.589935             0.098098
C             7.000000            -2.424871             0.012704
C             5.600000            -4.849742             0.023224
C             7.000000            -4.849742             0.002363
C             7.700000            -3.637307             0.060743
H             7.550000            -1.472243             0.011081
H             5.050000            -5.802370             0.040746
C             9.100000            -3.637307             0.088408
C             7.700000            -6.062178             0.054813
C             9.100000            -6.062178             0.036900
C             9.800000            -4.849742             0.020835
H             9.650000            -2.684679             0.044094
H             7.150000            -7.014806             0.095620
C            11.200000            -4.849742             0.012403
C             9.800000            -7.274613             0.047076
C            11.200000            -7.274613             0.085690
C            11.900000            -6.062178             0.004339
H            11.750000            -3.897114             0.069163
H             9.250000            -8.227241             0.097899
H            11.750000            -8.227241             0.028327
H            13.000000            -6.062178             0.013378
