42
isomero_11_16
C             0.700000             1.212436             0.058575
C            -0.700000             1.212436             0.017416
C            -1.400000             0.000000             0.072861
C            -0.700000            -1.212436             0.053429
C             0.700000            -1.212436             0.025306
C             1.400000            -0.000000             0.091706
H             1.250000             2.165064             0.075819
H            -1.250000             2.165064             0.088703
H            -2.500000             0.000000             0.006880
H            -1.250000            -2.165064             0.018353
C             2.800000             0.000000             0.073707
C             1.400000            -2.424871             0.069671
C             2.800000            -2.424871             0.077699
C             3.500000            -1.212436             0.050190
H             3.350000             0.952628             0.042550
H             0.850000            -3.377499             0.061124
C             4.900000            -1.212436             0.085577
C             3.500000            -3.637307             0.067080
N             4.900000            -3.637307             0.052359
B             5.600000            -2.424871             0.029882
H             5.450000            -0.259808             0.070397
H             2.950000            -4.589935             0.038161
C             7.000000            -2.424871             0.056768
C             5.600000            -4.849742             0.088786
C             7.000000            -4.849742             0.084295
C             7.700000            -3.637307             0.089880
H             7.550000            -1.472243             0.093900
H             5.050000            -5.802370             0.081544
C             9.100000            -3.637307             0.000136
C             7.700000            -6.062178             0.000309
C             9.100000            -6.062178             0.008747
C             9.800000            -4.849742             0.026073
H             9.650000            -2.684679             0.002280
H             7.150000            -7.014806             0.042408
C            11.200000            -4.849742             0.034106
C             9.800000            -7.274613             0.054135
C            11.200000            -7.274613             0.092617
C            11.900000            -6.062178             0.029850
H            11.750000            -3.897114             0.033808
H             9.250000            -8.227241             0.085948
H            11.750000            -8.227241             0.034048
H            13.000000            -6.062178             0.013812
