42
isomero_7_6
C             0.700000             1.212436             0.031148
C            -0.700000             1.212436             0.069384
C            -1.400000             0.000000             0.009187
C            -0.700000            -1.212436             0.040209
C             0.700000            -1.212436             0.029518
C             1.400000            -0.000000             0.030650
H             1.250000             2.165064             0.010556
H            -1.250000             2.165064             0.059383
H            -2.500000             0.000000             0.028273
H            -1.250000            -2.165064             0.015522
C             2.800000             0.000000             0.000066
C             1.400000            -2.424871             0.028360
C             2.800000            -2.424871             0.055081
B             3.500000            -1.212436             0.087090
H             3.350000             0.952628             0.004225
H             0.850000            -3.377499             0.090472
N             4.900000            -1.212436             0.013097
C             3.500000            -3.637307             0.083373
C             4.900000            -3.637307             0.080047
C             5.600000            -2.424871             0.091788
H             5.450000            -0.259808             0.013730
H             2.950000            -4.589935             0.050473
C             7.000000            -2.424871             0.040496
C             5.600000            -4.849742             0.017357
C             7.000000            -4.849742             0.057518
C             7.700000            -3.637307             0.060622
H             7.550000            -1.472243             0.021445
H             5.050000            -5.802370             0.051993
C             9.100000            -3.637307             0.098919
C             7.700000            -6.062178             0.048992
C             9.100000            -6.062178             0.069487
C             9.800000            -4.849742             0.041142
H             9.650000            -2.684679             0.003478
H             7.150000            -7.014806             0.029283
C            11.200000            -4.849742             0.080144
C             9.800000            -7.274613             0.034650
C            11.200000            -7.274613             0.008332
C            11.900000            -6.062178             0.051111
H            11.750000            -3.897114             0.036683
H             9.250000            -8.227241             0.073948
H            11.750000            -8.227241             0.052474
H            13.000000            -6.062178             0.080452
