42
isomero_6_7
C             0.700000             1.212436             0.057068
C            -0.700000             1.212436             0.057183
C            -1.400000             0.000000             0.028602
C            -0.700000            -1.212436             0.069913
C             0.700000            -1.212436             0.079626
C             1.400000            -0.000000             0.044159
H             1.250000             2.165064             0.044622
H            -1.250000             2.165064             0.046566
H            -2.500000             0.000000             0.027904
H            -1.250000            -2.165064             0.067538
C             2.800000             0.000000             0.090366
C             1.400000            -2.424871             0.090853
C             2.800000            -2.424871             0.074720
N             3.500000            -1.212436             0.026051
H             3.350000             0.952628             0.068964
H             0.850000            -3.377499             0.013183
B             4.900000            -1.212436             0.012350
C             3.500000            -3.637307             0.019090
C             4.900000            -3.637307             0.014573
C             5.600000            -2.424871             0.058504
H             5.450000            -0.259808             0.007336
H             2.950000            -4.589935             0.082233
C             7.000000            -2.424871             0.072290
C             5.600000            -4.849742             0.092586
C             7.000000            -4.849742             0.049264
C             7.700000            -3.637307             0.065488
H             7.550000            -1.472243             0.089012
H             5.050000            -5.802370             0.053853
C             9.100000            -3.637307             0.028221
C             7.700000            -6.062178             0.097596
C             9.100000            -6.062178             0.003643
C             9.800000            -4.849742             0.032624
H             9.650000            -2.684679             0.097301
H             7.150000            -7.014806             0.036503
C            11.200000            -4.849742             0.030915
C             9.800000            -7.274613             0.012091
C            11.200000            -7.274613             0.091577
C            11.900000            -6.062178             0.013548
H            11.750000            -3.897114             0.033212
H             9.250000            -8.227241             0.089748
H            11.750000            -8.227241             0.049965
H            13.000000            -6.062178             0.061529
