42
isomero_2_1
N             0.700000             1.212436             0.016689
B            -0.700000             1.212436             0.018809
C            -1.400000             0.000000             0.009463
C            -0.700000            -1.212436             0.032319
C             0.700000            -1.212436             0.076960
C             1.400000            -0.000000             0.023412
H             1.250000             2.165064             0.074037
H            -1.250000             2.165064             0.069282
H            -2.500000             0.000000             0.082408
H            -1.250000            -2.165064             0.082798
C             2.800000             0.000000             0.029337
C             1.400000            -2.424871             0.030937
C             2.800000            -2.424871             0.052303
C             3.500000            -1.212436             0.032530
H             3.350000             0.952628             0.083184
H             0.850000            -3.377499             0.081029
C             4.900000            -1.212436             0.055700
C             3.500000            -3.637307             0.026296
C             4.900000            -3.637307             0.068057
C             5.600000            -2.424871             0.023365
H             5.450000            -0.259808             0.045643
H             2.950000            -4.589935             0.038457
C             7.000000            -2.424871             0.053860
C             5.600000            -4.849742             0.099170
C             7.000000            -4.849742             0.075522
C             7.700000            -3.637307             0.098045
H             7.550000            -1.472243             0.023478
H             5.050000            -5.802370             0.052856
C             9.100000            -3.637307             0.005144
C             7.700000            -6.062178             0.075688
C             9.100000            -6.062178             0.060198
C             9.800000            -4.849742             0.085717
H             9.650000            -2.684679             0.098828
H             7.150000            -7.014806             0.092948
C            11.200000            -4.849742             0.040951
C             9.800000            -7.274613             0.000034
C            11.200000            -7.274613             0.054088
C            11.900000            -6.062178             0.020773
H            11.750000            -3.897114             0.021928
H             9.250000            -8.227241             0.032581
H            11.750000            -8.227241             0.009595
H            13.000000            -6.062178             0.074753
