92
isomero_29_30
C             0.700000             1.212436             0.086984
C            -0.700000             1.212436             0.020616
C            -1.400000             0.000000             0.014101
C            -0.700000            -1.212436             0.011219
C             0.700000            -1.212436             0.061155
C             1.400000            -0.000000             0.036155
H             1.250000             2.165064             0.064297
H            -1.250000             2.165064             0.003247
C             2.800000             0.000000             0.057149
C             1.400000            -2.424871             0.080343
C             2.800000            -2.424871             0.042545
C             3.500000            -1.212436             0.082652
H             3.350000             0.952628             0.034485
C             4.900000            -1.212436             0.007589
C             3.500000            -3.637307             0.045535
C             4.900000            -3.637307             0.006869
C             5.600000            -2.424871             0.040740
H             5.450000            -0.259808             0.091972
C             7.000000            -2.424871             0.038570
C             5.600000            -4.849742             0.004374
C             7.000000            -4.849742             0.066418
C             7.700000            -3.637307             0.048386
H             7.550000            -1.472243             0.077195
C             9.100000            -3.637307             0.034767
C             7.700000            -6.062178             0.077415
C             9.100000            -6.062178             0.058056
C             9.800000            -4.849742             0.063872
H             9.650000            -2.684679             0.083872
H             9.650000            -7.014806             0.056436
H            10.900000            -4.849742             0.084179
C            -2.800000             0.000000             0.054810
C            -3.500000            -1.212436             0.054384
C            -2.800000            -2.424871             0.092072
C            -1.400000            -2.424871             0.006851
H            -3.350000             0.952628             0.013360
C            -0.700000            -3.637307             0.024272
C             0.700000            -3.637307             0.091422
C             1.400000            -4.849742             0.046551
C             2.800000            -4.849742             0.049888
C             3.500000            -6.062178             0.003798
C             4.900000            -6.062178             0.088079
C             5.600000            -7.274613             0.041797
C             7.000000            -7.274613             0.023364
H             7.550000            -8.227241             0.046998
C            -4.900000            -1.212436             0.061621
C            -5.600000            -2.424871             0.047109
C            -4.900000            -3.637307             0.063981
C            -3.500000            -3.637307             0.016983
H            -5.450000            -0.259808             0.045182
C            -2.800000            -4.849742             0.036728
C            -1.400000            -4.849742             0.091819
C            -0.700000            -6.062178             0.056760
C             0.700000            -6.062178             0.010102
C             1.400000            -7.274613             0.056510
C             2.800000            -7.274613             0.032525
C             3.500000            -8.487049             0.080999
C             4.900000            -8.487049             0.071798
H             5.450000            -9.439677             0.082330
C            -7.000000            -2.424871             0.032791
B            -7.700000            -3.637307             0.028502
C            -7.000000            -4.849742             0.094330
C            -5.600000            -4.849742             0.043124
H            -7.550000            -1.472243             0.033384
C            -4.900000            -6.062178             0.023435
C            -3.500000            -6.062178             0.065730
C            -2.800000            -7.274613             0.081435
C            -1.400000            -7.274613             0.037543
C            -0.700000            -8.487049             0.095170
C             0.700000            -8.487049             0.066842
C             1.400000            -9.699485             0.032063
C             2.800000            -9.699485             0.003616
H             3.350000           -10.652112             0.075901
N            -9.100000            -3.637307             0.095106
C            -9.800000            -4.849742             0.053508
C            -9.100000            -6.062178             0.095682
C            -7.700000            -6.062178             0.063483
H            -9.650000            -2.684679             0.058776
H           -10.900000            -4.849742             0.054524
H            -9.650000            -7.014806             0.014545
C            -7.000000            -7.274613             0.042502
C            -5.600000            -7.274613             0.064494
H            -7.550000            -8.227241             0.010102
C            -4.900000            -8.487049             0.040698
C            -3.500000            -8.487049             0.080520
H            -5.450000            -9.439677             0.068724
C            -2.800000            -9.699485             0.083286
C            -1.400000            -9.699485             0.001989
H            -3.350000           -10.652112             0.021395
C            -0.700000           -10.911920             0.049851
C             0.700000           -10.911920             0.051722
H            -1.250000           -11.864548             0.081327
H             1.250000           -11.864548             0.086319
