92
isomero_10_17
C             0.700000             1.212436             0.021891
C            -0.700000             1.212436             0.014606
C            -1.400000             0.000000             0.073750
B            -0.700000            -1.212436             0.069344
C             0.700000            -1.212436             0.077217
C             1.400000            -0.000000             0.086092
H             1.250000             2.165064             0.028423
H            -1.250000             2.165064             0.058288
C             2.800000             0.000000             0.028409
C             1.400000            -2.424871             0.048826
C             2.800000            -2.424871             0.004601
C             3.500000            -1.212436             0.062319
H             3.350000             0.952628             0.090885
C             4.900000            -1.212436             0.072920
C             3.500000            -3.637307             0.075049
C             4.900000            -3.637307             0.091377
C             5.600000            -2.424871             0.031514
H             5.450000            -0.259808             0.078613
C             7.000000            -2.424871             0.037140
C             5.600000            -4.849742             0.053572
C             7.000000            -4.849742             0.049775
C             7.700000            -3.637307             0.037879
H             7.550000            -1.472243             0.084933
C             9.100000            -3.637307             0.026019
C             7.700000            -6.062178             0.015255
C             9.100000            -6.062178             0.050501
C             9.800000            -4.849742             0.080278
H             9.650000            -2.684679             0.002764
H             9.650000            -7.014806             0.043197
H            10.900000            -4.849742             0.023470
C            -2.800000             0.000000             0.079998
C            -3.500000            -1.212436             0.075354
C            -2.800000            -2.424871             0.094433
N            -1.400000            -2.424871             0.075387
H            -3.350000             0.952628             0.080504
C            -0.700000            -3.637307             0.011791
C             0.700000            -3.637307             0.071758
C             1.400000            -4.849742             0.005354
C             2.800000            -4.849742             0.093990
C             3.500000            -6.062178             0.019258
C             4.900000            -6.062178             0.036608
C             5.600000            -7.274613             0.051450
C             7.000000            -7.274613             0.087116
H             7.550000            -8.227241             0.003363
C            -4.900000            -1.212436             0.050237
C            -5.600000            -2.424871             0.024656
C            -4.900000            -3.637307             0.077296
C            -3.500000            -3.637307             0.064873
H            -5.450000            -0.259808             0.012795
C            -2.800000            -4.849742             0.027821
C            -1.400000            -4.849742             0.090540
C            -0.700000            -6.062178             0.092884
C             0.700000            -6.062178             0.052479
C             1.400000            -7.274613             0.002645
C             2.800000            -7.274613             0.021085
C             3.500000            -8.487049             0.046317
C             4.900000            -8.487049             0.082046
H             5.450000            -9.439677             0.033190
C            -7.000000            -2.424871             0.080433
C            -7.700000            -3.637307             0.021129
C            -7.000000            -4.849742             0.076792
C            -5.600000            -4.849742             0.011172
H            -7.550000            -1.472243             0.048057
C            -4.900000            -6.062178             0.054445
C            -3.500000            -6.062178             0.047599
C            -2.800000            -7.274613             0.012565
C            -1.400000            -7.274613             0.007622
C            -0.700000            -8.487049             0.083207
C             0.700000            -8.487049             0.073073
C             1.400000            -9.699485             0.048032
C             2.800000            -9.699485             0.006691
H             3.350000           -10.652112             0.055275
C            -9.100000            -3.637307             0.049208
C            -9.800000            -4.849742             0.099666
C            -9.100000            -6.062178             0.039371
C            -7.700000            -6.062178             0.070038
H            -9.650000            -2.684679             0.035705
H           -10.900000            -4.849742             0.099585
H            -9.650000            -7.014806             0.023455
C            -7.000000            -7.274613             0.009427
C            -5.600000            -7.274613             0.076425
H            -7.550000            -8.227241             0.085564
C            -4.900000            -8.487049             0.039352
C            -3.500000            -8.487049             0.020082
H            -5.450000            -9.439677             0.023731
C            -2.800000            -9.699485             0.000182
C            -1.400000            -9.699485             0.044798
H            -3.350000           -10.652112             0.008398
C            -0.700000           -10.911920             0.091705
C             0.700000           -10.911920             0.043919
H            -1.250000           -11.864548             0.037776
H             1.250000           -11.864548             0.068720
