92
isomero_36_26
C             0.700000             1.212436             0.046572
C            -0.700000             1.212436             0.023146
C            -1.400000             0.000000             0.011874
C            -0.700000            -1.212436             0.068753
C             0.700000            -1.212436             0.042416
C             1.400000            -0.000000             0.000203
H             1.250000             2.165064             0.057210
H            -1.250000             2.165064             0.013705
C             2.800000             0.000000             0.065937
C             1.400000            -2.424871             0.016170
C             2.800000            -2.424871             0.073134
C             3.500000            -1.212436             0.058511
H             3.350000             0.952628             0.001433
C             4.900000            -1.212436             0.037400
C             3.500000            -3.637307             0.078975
C             4.900000            -3.637307             0.039646
C             5.600000            -2.424871             0.044602
H             5.450000            -0.259808             0.035136
C             7.000000            -2.424871             0.092059
C             5.600000            -4.849742             0.071210
C             7.000000            -4.849742             0.060028
C             7.700000            -3.637307             0.086322
H             7.550000            -1.472243             0.074232
C             9.100000            -3.637307             0.049706
C             7.700000            -6.062178             0.038076
C             9.100000            -6.062178             0.087043
C             9.800000            -4.849742             0.075586
H             9.650000            -2.684679             0.031047
H             9.650000            -7.014806             0.066645
H            10.900000            -4.849742             0.057731
C            -2.800000             0.000000             0.087485
C            -3.500000            -1.212436             0.075925
C            -2.800000            -2.424871             0.029822
C            -1.400000            -2.424871             0.045380
H            -3.350000             0.952628             0.025901
N            -0.700000            -3.637307             0.099797
C             0.700000            -3.637307             0.010715
C             1.400000            -4.849742             0.039418
C             2.800000            -4.849742             0.070469
C             3.500000            -6.062178             0.023366
C             4.900000            -6.062178             0.066080
C             5.600000            -7.274613             0.003564
C             7.000000            -7.274613             0.091387
H             7.550000            -8.227241             0.080794
C            -4.900000            -1.212436             0.090184
C            -5.600000            -2.424871             0.002252
C            -4.900000            -3.637307             0.089569
C            -3.500000            -3.637307             0.086491
H            -5.450000            -0.259808             0.037331
C            -2.800000            -4.849742             0.047448
B            -1.400000            -4.849742             0.072063
C            -0.700000            -6.062178             0.014592
C             0.700000            -6.062178             0.041076
C             1.400000            -7.274613             0.073785
C             2.800000            -7.274613             0.046866
C             3.500000            -8.487049             0.066681
C             4.900000            -8.487049             0.052223
H             5.450000            -9.439677             0.011897
C            -7.000000            -2.424871             0.088738
C            -7.700000            -3.637307             0.094821
C            -7.000000            -4.849742             0.008107
C            -5.600000            -4.849742             0.002104
H            -7.550000            -1.472243             0.067371
C            -4.900000            -6.062178             0.098074
C            -3.500000            -6.062178             0.085504
C            -2.800000            -7.274613             0.024876
C            -1.400000            -7.274613             0.033491
C            -0.700000            -8.487049             0.052910
C             0.700000            -8.487049             0.046099
C             1.400000            -9.699485             0.061859
C             2.800000            -9.699485             0.067747
H             3.350000           -10.652112             0.020798
C            -9.100000            -3.637307             0.051686
C            -9.800000            -4.849742             0.096189
C            -9.100000            -6.062178             0.084188
C            -7.700000            -6.062178             0.022304
H            -9.650000            -2.684679             0.011102
H           -10.900000            -4.849742             0.067366
H            -9.650000            -7.014806             0.072579
C            -7.000000            -7.274613             0.065734
C            -5.600000            -7.274613             0.095460
H            -7.550000            -8.227241             0.001457
C            -4.900000            -8.487049             0.039037
C            -3.500000            -8.487049             0.094405
H            -5.450000            -9.439677             0.082318
C            -2.800000            -9.699485             0.080277
C            -1.400000            -9.699485             0.082632
H            -3.350000           -10.652112             0.007548
C            -0.700000           -10.911920             0.084828
C             0.700000           -10.911920             0.019930
H            -1.250000           -11.864548             0.012972
H             1.250000           -11.864548             0.027856
