92
isomero_29_20
C             0.700000             1.212436             0.063942
C            -0.700000             1.212436             0.015770
C            -1.400000             0.000000             0.032164
C            -0.700000            -1.212436             0.041262
C             0.700000            -1.212436             0.022321
C             1.400000            -0.000000             0.004027
H             1.250000             2.165064             0.092531
H            -1.250000             2.165064             0.043703
C             2.800000             0.000000             0.061193
C             1.400000            -2.424871             0.074091
C             2.800000            -2.424871             0.058023
C             3.500000            -1.212436             0.051317
H             3.350000             0.952628             0.058027
C             4.900000            -1.212436             0.053798
C             3.500000            -3.637307             0.017136
C             4.900000            -3.637307             0.089957
C             5.600000            -2.424871             0.077623
H             5.450000            -0.259808             0.074975
C             7.000000            -2.424871             0.068312
C             5.600000            -4.849742             0.010803
C             7.000000            -4.849742             0.081515
C             7.700000            -3.637307             0.063990
H             7.550000            -1.472243             0.073229
C             9.100000            -3.637307             0.003446
C             7.700000            -6.062178             0.005309
C             9.100000            -6.062178             0.090576
C             9.800000            -4.849742             0.045845
H             9.650000            -2.684679             0.034938
H             9.650000            -7.014806             0.026231
H            10.900000            -4.849742             0.013727
C            -2.800000             0.000000             0.077444
C            -3.500000            -1.212436             0.081089
C            -2.800000            -2.424871             0.020363
C            -1.400000            -2.424871             0.088957
H            -3.350000             0.952628             0.035037
C            -0.700000            -3.637307             0.007667
C             0.700000            -3.637307             0.002480
C             1.400000            -4.849742             0.001680
C             2.800000            -4.849742             0.005558
C             3.500000            -6.062178             0.024904
C             4.900000            -6.062178             0.051878
C             5.600000            -7.274613             0.085189
C             7.000000            -7.274613             0.059798
H             7.550000            -8.227241             0.047584
C            -4.900000            -1.212436             0.058420
C            -5.600000            -2.424871             0.099624
C            -4.900000            -3.637307             0.010267
C            -3.500000            -3.637307             0.024198
H            -5.450000            -0.259808             0.081332
C            -2.800000            -4.849742             0.072582
C            -1.400000            -4.849742             0.005487
C            -0.700000            -6.062178             0.076285
C             0.700000            -6.062178             0.028630
C             1.400000            -7.274613             0.050369
C             2.800000            -7.274613             0.020074
C             3.500000            -8.487049             0.081893
C             4.900000            -8.487049             0.099466
H             5.450000            -9.439677             0.082179
N            -7.000000            -2.424871             0.058313
B            -7.700000            -3.637307             0.089550
C            -7.000000            -4.849742             0.071958
C            -5.600000            -4.849742             0.066334
H            -7.550000            -1.472243             0.016728
C            -4.900000            -6.062178             0.039327
C            -3.500000            -6.062178             0.054012
C            -2.800000            -7.274613             0.067153
C            -1.400000            -7.274613             0.076868
C            -0.700000            -8.487049             0.028192
C             0.700000            -8.487049             0.099295
C             1.400000            -9.699485             0.097845
C             2.800000            -9.699485             0.088379
H             3.350000           -10.652112             0.088004
C            -9.100000            -3.637307             0.066927
C            -9.800000            -4.849742             0.068031
C            -9.100000            -6.062178             0.008270
C            -7.700000            -6.062178             0.061859
H            -9.650000            -2.684679             0.014769
H           -10.900000            -4.849742             0.091591
H            -9.650000            -7.014806             0.080425
C            -7.000000            -7.274613             0.000492
C            -5.600000            -7.274613             0.074353
H            -7.550000            -8.227241             0.000402
C            -4.900000            -8.487049             0.085957
C            -3.500000            -8.487049             0.039366
H            -5.450000            -9.439677             0.002155
C            -2.800000            -9.699485             0.025016
C            -1.400000            -9.699485             0.061399
H            -3.350000           -10.652112             0.013779
C            -0.700000           -10.911920             0.044513
C             0.700000           -10.911920             0.078918
H            -1.250000           -11.864548             0.082411
H             1.250000           -11.864548             0.044718
