92
isomero_36_37
C             0.700000             1.212436             0.030103
C            -0.700000             1.212436             0.088407
C            -1.400000             0.000000             0.061071
C            -0.700000            -1.212436             0.090289
C             0.700000            -1.212436             0.065090
C             1.400000            -0.000000             0.030236
H             1.250000             2.165064             0.043330
H            -1.250000             2.165064             0.058401
C             2.800000             0.000000             0.089910
C             1.400000            -2.424871             0.013845
C             2.800000            -2.424871             0.078271
C             3.500000            -1.212436             0.004548
H             3.350000             0.952628             0.034435
C             4.900000            -1.212436             0.074486
C             3.500000            -3.637307             0.086676
C             4.900000            -3.637307             0.099481
C             5.600000            -2.424871             0.026193
H             5.450000            -0.259808             0.073943
C             7.000000            -2.424871             0.020956
C             5.600000            -4.849742             0.055045
C             7.000000            -4.849742             0.011393
C             7.700000            -3.637307             0.099409
H             7.550000            -1.472243             0.080521
C             9.100000            -3.637307             0.049294
C             7.700000            -6.062178             0.058016
C             9.100000            -6.062178             0.096102
C             9.800000            -4.849742             0.075428
H             9.650000            -2.684679             0.031827
H             9.650000            -7.014806             0.010693
H            10.900000            -4.849742             0.019713
C            -2.800000             0.000000             0.050646
C            -3.500000            -1.212436             0.002695
C            -2.800000            -2.424871             0.074588
C            -1.400000            -2.424871             0.001896
H            -3.350000             0.952628             0.065555
C            -0.700000            -3.637307             0.023301
C             0.700000            -3.637307             0.097948
C             1.400000            -4.849742             0.087904
C             2.800000            -4.849742             0.061620
C             3.500000            -6.062178             0.007965
C             4.900000            -6.062178             0.078625
C             5.600000            -7.274613             0.094729
C             7.000000            -7.274613             0.007380
H             7.550000            -8.227241             0.011982
C            -4.900000            -1.212436             0.069942
C            -5.600000            -2.424871             0.016084
C            -4.900000            -3.637307             0.096211
C            -3.500000            -3.637307             0.066454
H            -5.450000            -0.259808             0.043118
N            -2.800000            -4.849742             0.069892
B            -1.400000            -4.849742             0.094775
C            -0.700000            -6.062178             0.022727
C             0.700000            -6.062178             0.004886
C             1.400000            -7.274613             0.003474
C             2.800000            -7.274613             0.039522
C             3.500000            -8.487049             0.054007
C             4.900000            -8.487049             0.028396
H             5.450000            -9.439677             0.087006
C            -7.000000            -2.424871             0.040677
C            -7.700000            -3.637307             0.082916
C            -7.000000            -4.849742             0.098111
C            -5.600000            -4.849742             0.011435
H            -7.550000            -1.472243             0.092390
C            -4.900000            -6.062178             0.084597
C            -3.500000            -6.062178             0.009009
C            -2.800000            -7.274613             0.000526
C            -1.400000            -7.274613             0.028014
C            -0.700000            -8.487049             0.037106
C             0.700000            -8.487049             0.048346
C             1.400000            -9.699485             0.073002
C             2.800000            -9.699485             0.056921
H             3.350000           -10.652112             0.064283
C            -9.100000            -3.637307             0.035628
C            -9.800000            -4.849742             0.073999
C            -9.100000            -6.062178             0.016489
C            -7.700000            -6.062178             0.089961
H            -9.650000            -2.684679             0.022466
H           -10.900000            -4.849742             0.081554
H            -9.650000            -7.014806             0.061277
C            -7.000000            -7.274613             0.038683
C            -5.600000            -7.274613             0.040914
H            -7.550000            -8.227241             0.097492
C            -4.900000            -8.487049             0.029838
C            -3.500000            -8.487049             0.000592
H            -5.450000            -9.439677             0.036107
C            -2.800000            -9.699485             0.077431
C            -1.400000            -9.699485             0.044579
H            -3.350000           -10.652112             0.059916
C            -0.700000           -10.911920             0.001535
C             0.700000           -10.911920             0.072456
H            -1.250000           -11.864548             0.026322
H             1.250000           -11.864548             0.027079
