92
isomero_5_6
C             0.700000             1.212436             0.016885
C            -0.700000             1.212436             0.095104
B            -1.400000             0.000000             0.053283
C            -0.700000            -1.212436             0.073937
C             0.700000            -1.212436             0.050980
C             1.400000            -0.000000             0.087374
H             1.250000             2.165064             0.059255
H            -1.250000             2.165064             0.058390
C             2.800000             0.000000             0.098972
C             1.400000            -2.424871             0.020236
C             2.800000            -2.424871             0.048424
C             3.500000            -1.212436             0.004924
H             3.350000             0.952628             0.039068
C             4.900000            -1.212436             0.032554
C             3.500000            -3.637307             0.064897
C             4.900000            -3.637307             0.038085
C             5.600000            -2.424871             0.068734
H             5.450000            -0.259808             0.031862
C             7.000000            -2.424871             0.010878
C             5.600000            -4.849742             0.088054
C             7.000000            -4.849742             0.093747
C             7.700000            -3.637307             0.083617
H             7.550000            -1.472243             0.093364
C             9.100000            -3.637307             0.098247
C             7.700000            -6.062178             0.030591
C             9.100000            -6.062178             0.084847
C             9.800000            -4.849742             0.061398
H             9.650000            -2.684679             0.049832
H             9.650000            -7.014806             0.087984
H            10.900000            -4.849742             0.080470
N            -2.800000             0.000000             0.080569
C            -3.500000            -1.212436             0.007732
C            -2.800000            -2.424871             0.063169
C            -1.400000            -2.424871             0.009275
H            -3.350000             0.952628             0.017332
C            -0.700000            -3.637307             0.028818
C             0.700000            -3.637307             0.056396
C             1.400000            -4.849742             0.024482
C             2.800000            -4.849742             0.081706
C             3.500000            -6.062178             0.006990
C             4.900000            -6.062178             0.090475
C             5.600000            -7.274613             0.073194
C             7.000000            -7.274613             0.019997
H             7.550000            -8.227241             0.066824
C            -4.900000            -1.212436             0.053600
C            -5.600000            -2.424871             0.014697
C            -4.900000            -3.637307             0.042809
C            -3.500000            -3.637307             0.093219
H            -5.450000            -0.259808             0.018871
C            -2.800000            -4.849742             0.020772
C            -1.400000            -4.849742             0.058318
C            -0.700000            -6.062178             0.027811
C             0.700000            -6.062178             0.077936
C             1.400000            -7.274613             0.023382
C             2.800000            -7.274613             0.013547
C             3.500000            -8.487049             0.077070
C             4.900000            -8.487049             0.000186
H             5.450000            -9.439677             0.089177
C            -7.000000            -2.424871             0.009131
C            -7.700000            -3.637307             0.000983
C            -7.000000            -4.849742             0.079310
C            -5.600000            -4.849742             0.046515
H            -7.550000            -1.472243             0.050002
C            -4.900000            -6.062178             0.002887
C            -3.500000            -6.062178             0.078674
C            -2.800000            -7.274613             0.044828
C            -1.400000            -7.274613             0.071761
C            -0.700000            -8.487049             0.009267
C             0.700000            -8.487049             0.096315
C             1.400000            -9.699485             0.024276
C             2.800000            -9.699485             0.054954
H             3.350000           -10.652112             0.012930
C            -9.100000            -3.637307             0.000722
C            -9.800000            -4.849742             0.094213
C            -9.100000            -6.062178             0.051983
C            -7.700000            -6.062178             0.017320
H            -9.650000            -2.684679             0.046096
H           -10.900000            -4.849742             0.037856
H            -9.650000            -7.014806             0.057121
C            -7.000000            -7.274613             0.010436
C            -5.600000            -7.274613             0.033864
H            -7.550000            -8.227241             0.019637
C            -4.900000            -8.487049             0.023773
C            -3.500000            -8.487049             0.026662
H            -5.450000            -9.439677             0.047306
C            -2.800000            -9.699485             0.097882
C            -1.400000            -9.699485             0.000524
H            -3.350000           -10.652112             0.075052
C            -0.700000           -10.911920             0.090605
C             0.700000           -10.911920             0.007293
H            -1.250000           -11.864548             0.066039
H             1.250000           -11.864548             0.041139
