92
isomero_11_12
C             0.700000             1.212436             0.039074
C            -0.700000             1.212436             0.050443
C            -1.400000             0.000000             0.080361
C            -0.700000            -1.212436             0.096420
C             0.700000            -1.212436             0.056915
C             1.400000            -0.000000             0.011147
H             1.250000             2.165064             0.073097
H            -1.250000             2.165064             0.083066
C             2.800000             0.000000             0.092368
C             1.400000            -2.424871             0.045017
C             2.800000            -2.424871             0.083811
C             3.500000            -1.212436             0.064717
H             3.350000             0.952628             0.034970
C             4.900000            -1.212436             0.085496
C             3.500000            -3.637307             0.068735
C             4.900000            -3.637307             0.089831
C             5.600000            -2.424871             0.010958
H             5.450000            -0.259808             0.069686
C             7.000000            -2.424871             0.020597
C             5.600000            -4.849742             0.078221
C             7.000000            -4.849742             0.054955
C             7.700000            -3.637307             0.019032
H             7.550000            -1.472243             0.010967
C             9.100000            -3.637307             0.055361
C             7.700000            -6.062178             0.057837
C             9.100000            -6.062178             0.027056
C             9.800000            -4.849742             0.080783
H             9.650000            -2.684679             0.062918
H             9.650000            -7.014806             0.068624
H            10.900000            -4.849742             0.092952
C            -2.800000             0.000000             0.020927
B            -3.500000            -1.212436             0.042104
C            -2.800000            -2.424871             0.043507
C            -1.400000            -2.424871             0.018549
H            -3.350000             0.952628             0.073609
C            -0.700000            -3.637307             0.026032
C             0.700000            -3.637307             0.090691
C             1.400000            -4.849742             0.042385
C             2.800000            -4.849742             0.019974
C             3.500000            -6.062178             0.037885
C             4.900000            -6.062178             0.054358
C             5.600000            -7.274613             0.079295
C             7.000000            -7.274613             0.069482
H             7.550000            -8.227241             0.054130
N            -4.900000            -1.212436             0.046476
C            -5.600000            -2.424871             0.053118
C            -4.900000            -3.637307             0.026307
C            -3.500000            -3.637307             0.042789
H            -5.450000            -0.259808             0.057972
C            -2.800000            -4.849742             0.077210
C            -1.400000            -4.849742             0.030574
C            -0.700000            -6.062178             0.013430
C             0.700000            -6.062178             0.086969
C             1.400000            -7.274613             0.089275
C             2.800000            -7.274613             0.091990
C             3.500000            -8.487049             0.036550
C             4.900000            -8.487049             0.034071
H             5.450000            -9.439677             0.092088
C            -7.000000            -2.424871             0.099711
C            -7.700000            -3.637307             0.095921
C            -7.000000            -4.849742             0.010106
C            -5.600000            -4.849742             0.037312
H            -7.550000            -1.472243             0.061326
C            -4.900000            -6.062178             0.075950
C            -3.500000            -6.062178             0.062896
C            -2.800000            -7.274613             0.091242
C            -1.400000            -7.274613             0.003365
C            -0.700000            -8.487049             0.085233
C             0.700000            -8.487049             0.000827
C             1.400000            -9.699485             0.004380
C             2.800000            -9.699485             0.020003
H             3.350000           -10.652112             0.082794
C            -9.100000            -3.637307             0.036847
C            -9.800000            -4.849742             0.046321
C            -9.100000            -6.062178             0.005042
C            -7.700000            -6.062178             0.032749
H            -9.650000            -2.684679             0.009388
H           -10.900000            -4.849742             0.043510
H            -9.650000            -7.014806             0.092737
C            -7.000000            -7.274613             0.074599
C            -5.600000            -7.274613             0.047141
H            -7.550000            -8.227241             0.023380
C            -4.900000            -8.487049             0.043070
C            -3.500000            -8.487049             0.060632
H            -5.450000            -9.439677             0.042589
C            -2.800000            -9.699485             0.025491
C            -1.400000            -9.699485             0.051040
H            -3.350000           -10.652112             0.085305
C            -0.700000           -10.911920             0.088176
C             0.700000           -10.911920             0.067640
H            -1.250000           -11.864548             0.066452
H             1.250000           -11.864548             0.095501
