92
isomero_26_17
C             0.700000             1.212436             0.011922
C            -0.700000             1.212436             0.000587
C            -1.400000             0.000000             0.006193
C            -0.700000            -1.212436             0.025652
C             0.700000            -1.212436             0.026116
C             1.400000            -0.000000             0.001242
H             1.250000             2.165064             0.061773
H            -1.250000             2.165064             0.036667
C             2.800000             0.000000             0.040208
C             1.400000            -2.424871             0.030354
C             2.800000            -2.424871             0.018388
C             3.500000            -1.212436             0.093176
H             3.350000             0.952628             0.001288
C             4.900000            -1.212436             0.016351
C             3.500000            -3.637307             0.011983
C             4.900000            -3.637307             0.017929
C             5.600000            -2.424871             0.078841
H             5.450000            -0.259808             0.006187
C             7.000000            -2.424871             0.032578
C             5.600000            -4.849742             0.024151
C             7.000000            -4.849742             0.080187
C             7.700000            -3.637307             0.005617
H             7.550000            -1.472243             0.091081
C             9.100000            -3.637307             0.054874
C             7.700000            -6.062178             0.002504
C             9.100000            -6.062178             0.084077
C             9.800000            -4.849742             0.045017
H             9.650000            -2.684679             0.052246
H             9.650000            -7.014806             0.072958
H            10.900000            -4.849742             0.008986
C            -2.800000             0.000000             0.003827
C            -3.500000            -1.212436             0.034512
C            -2.800000            -2.424871             0.099782
N            -1.400000            -2.424871             0.091649
H            -3.350000             0.952628             0.006511
B            -0.700000            -3.637307             0.020114
C             0.700000            -3.637307             0.018147
C             1.400000            -4.849742             0.094768
C             2.800000            -4.849742             0.014915
C             3.500000            -6.062178             0.008919
C             4.900000            -6.062178             0.009360
C             5.600000            -7.274613             0.042740
C             7.000000            -7.274613             0.021056
H             7.550000            -8.227241             0.054918
C            -4.900000            -1.212436             0.046897
C            -5.600000            -2.424871             0.008602
C            -4.900000            -3.637307             0.099252
C            -3.500000            -3.637307             0.091010
H            -5.450000            -0.259808             0.003744
C            -2.800000            -4.849742             0.017384
C            -1.400000            -4.849742             0.065292
C            -0.700000            -6.062178             0.005560
C             0.700000            -6.062178             0.064375
C             1.400000            -7.274613             0.036126
C             2.800000            -7.274613             0.040175
C             3.500000            -8.487049             0.047423
C             4.900000            -8.487049             0.051791
H             5.450000            -9.439677             0.096485
C            -7.000000            -2.424871             0.013403
C            -7.700000            -3.637307             0.078885
C            -7.000000            -4.849742             0.033770
C            -5.600000            -4.849742             0.046914
H            -7.550000            -1.472243             0.052783
C            -4.900000            -6.062178             0.086648
C            -3.500000            -6.062178             0.075941
C            -2.800000            -7.274613             0.075803
C            -1.400000            -7.274613             0.086128
C            -0.700000            -8.487049             0.081898
C             0.700000            -8.487049             0.039043
C             1.400000            -9.699485             0.021963
C             2.800000            -9.699485             0.062304
H             3.350000           -10.652112             0.090029
C            -9.100000            -3.637307             0.040935
C            -9.800000            -4.849742             0.061276
C            -9.100000            -6.062178             0.098801
C            -7.700000            -6.062178             0.068537
H            -9.650000            -2.684679             0.011435
H           -10.900000            -4.849742             0.044916
H            -9.650000            -7.014806             0.081057
C            -7.000000            -7.274613             0.005325
C            -5.600000            -7.274613             0.062239
H            -7.550000            -8.227241             0.091320
C            -4.900000            -8.487049             0.004290
C            -3.500000            -8.487049             0.021125
H            -5.450000            -9.439677             0.084006
C            -2.800000            -9.699485             0.064195
C            -1.400000            -9.699485             0.000851
H            -3.350000           -10.652112             0.002550
C            -0.700000           -10.911920             0.015851
C             0.700000           -10.911920             0.000152
H            -1.250000           -11.864548             0.016468
H             1.250000           -11.864548             0.099477
