92
isomero_20_29
C             0.700000             1.212436             0.043936
C            -0.700000             1.212436             0.004677
C            -1.400000             0.000000             0.053281
C            -0.700000            -1.212436             0.072750
C             0.700000            -1.212436             0.054668
C             1.400000            -0.000000             0.012107
H             1.250000             2.165064             0.094835
H            -1.250000             2.165064             0.075197
C             2.800000             0.000000             0.029894
C             1.400000            -2.424871             0.027053
C             2.800000            -2.424871             0.016404
C             3.500000            -1.212436             0.086661
H             3.350000             0.952628             0.008028
C             4.900000            -1.212436             0.091373
C             3.500000            -3.637307             0.056553
C             4.900000            -3.637307             0.081967
C             5.600000            -2.424871             0.080176
H             5.450000            -0.259808             0.078473
C             7.000000            -2.424871             0.097825
C             5.600000            -4.849742             0.079574
C             7.000000            -4.849742             0.051391
C             7.700000            -3.637307             0.018996
H             7.550000            -1.472243             0.021353
C             9.100000            -3.637307             0.022499
C             7.700000            -6.062178             0.099575
C             9.100000            -6.062178             0.089977
C             9.800000            -4.849742             0.084841
H             9.650000            -2.684679             0.051900
H             9.650000            -7.014806             0.001841
H            10.900000            -4.849742             0.005780
C            -2.800000             0.000000             0.000209
C            -3.500000            -1.212436             0.047261
C            -2.800000            -2.424871             0.016789
C            -1.400000            -2.424871             0.077117
H            -3.350000             0.952628             0.000040
C            -0.700000            -3.637307             0.033187
C             0.700000            -3.637307             0.084548
C             1.400000            -4.849742             0.022029
C             2.800000            -4.849742             0.020657
C             3.500000            -6.062178             0.096058
C             4.900000            -6.062178             0.075326
C             5.600000            -7.274613             0.046575
C             7.000000            -7.274613             0.030783
H             7.550000            -8.227241             0.082797
C            -4.900000            -1.212436             0.047887
C            -5.600000            -2.424871             0.091093
C            -4.900000            -3.637307             0.091609
C            -3.500000            -3.637307             0.095520
H            -5.450000            -0.259808             0.088638
C            -2.800000            -4.849742             0.015326
C            -1.400000            -4.849742             0.037785
C            -0.700000            -6.062178             0.097757
C             0.700000            -6.062178             0.099067
C             1.400000            -7.274613             0.023210
C             2.800000            -7.274613             0.021682
C             3.500000            -8.487049             0.062650
C             4.900000            -8.487049             0.015568
H             5.450000            -9.439677             0.036682
B            -7.000000            -2.424871             0.056850
N            -7.700000            -3.637307             0.019339
C            -7.000000            -4.849742             0.080548
C            -5.600000            -4.849742             0.025484
H            -7.550000            -1.472243             0.091507
C            -4.900000            -6.062178             0.089000
C            -3.500000            -6.062178             0.084810
C            -2.800000            -7.274613             0.030581
C            -1.400000            -7.274613             0.026559
C            -0.700000            -8.487049             0.002336
C             0.700000            -8.487049             0.053503
C             1.400000            -9.699485             0.014166
C             2.800000            -9.699485             0.092721
H             3.350000           -10.652112             0.032827
C            -9.100000            -3.637307             0.006287
C            -9.800000            -4.849742             0.093980
C            -9.100000            -6.062178             0.061999
C            -7.700000            -6.062178             0.012413
H            -9.650000            -2.684679             0.025882
H           -10.900000            -4.849742             0.057814
H            -9.650000            -7.014806             0.098778
C            -7.000000            -7.274613             0.088872
C            -5.600000            -7.274613             0.075790
H            -7.550000            -8.227241             0.007856
C            -4.900000            -8.487049             0.022058
C            -3.500000            -8.487049             0.029625
H            -5.450000            -9.439677             0.056418
C            -2.800000            -9.699485             0.088309
C            -1.400000            -9.699485             0.027816
H            -3.350000           -10.652112             0.010089
C            -0.700000           -10.911920             0.026626
C             0.700000           -10.911920             0.038097
H            -1.250000           -11.864548             0.015901
H             1.250000           -11.864548             0.020522
