92
isomero_39_38
C             0.700000             1.212436             0.034005
C            -0.700000             1.212436             0.036696
C            -1.400000             0.000000             0.012975
C            -0.700000            -1.212436             0.020522
C             0.700000            -1.212436             0.052312
C             1.400000            -0.000000             0.072083
H             1.250000             2.165064             0.046989
H            -1.250000             2.165064             0.094820
C             2.800000             0.000000             0.009830
C             1.400000            -2.424871             0.087615
C             2.800000            -2.424871             0.019293
C             3.500000            -1.212436             0.029512
H             3.350000             0.952628             0.077329
C             4.900000            -1.212436             0.005897
C             3.500000            -3.637307             0.007445
C             4.900000            -3.637307             0.031738
C             5.600000            -2.424871             0.025357
H             5.450000            -0.259808             0.003909
C             7.000000            -2.424871             0.080322
C             5.600000            -4.849742             0.011988
C             7.000000            -4.849742             0.082376
C             7.700000            -3.637307             0.068839
H             7.550000            -1.472243             0.039584
C             9.100000            -3.637307             0.061622
C             7.700000            -6.062178             0.073387
C             9.100000            -6.062178             0.071245
C             9.800000            -4.849742             0.018371
H             9.650000            -2.684679             0.009924
H             9.650000            -7.014806             0.080633
H            10.900000            -4.849742             0.053515
C            -2.800000             0.000000             0.013950
C            -3.500000            -1.212436             0.025843
C            -2.800000            -2.424871             0.083681
C            -1.400000            -2.424871             0.014878
H            -3.350000             0.952628             0.019645
C            -0.700000            -3.637307             0.057503
C             0.700000            -3.637307             0.078414
C             1.400000            -4.849742             0.060313
C             2.800000            -4.849742             0.015385
C             3.500000            -6.062178             0.027969
C             4.900000            -6.062178             0.025878
C             5.600000            -7.274613             0.089297
C             7.000000            -7.274613             0.000152
H             7.550000            -8.227241             0.037333
C            -4.900000            -1.212436             0.011649
C            -5.600000            -2.424871             0.004020
C            -4.900000            -3.637307             0.024624
C            -3.500000            -3.637307             0.021852
H            -5.450000            -0.259808             0.026375
C            -2.800000            -4.849742             0.097710
C            -1.400000            -4.849742             0.040410
C            -0.700000            -6.062178             0.060895
C             0.700000            -6.062178             0.038279
C             1.400000            -7.274613             0.007557
C             2.800000            -7.274613             0.058014
C             3.500000            -8.487049             0.063826
C             4.900000            -8.487049             0.095639
H             5.450000            -9.439677             0.077447
C            -7.000000            -2.424871             0.071593
C            -7.700000            -3.637307             0.090364
B            -7.000000            -4.849742             0.057568
N            -5.600000            -4.849742             0.041488
H            -7.550000            -1.472243             0.055429
C            -4.900000            -6.062178             0.020460
C            -3.500000            -6.062178             0.076260
C            -2.800000            -7.274613             0.036722
C            -1.400000            -7.274613             0.054629
C            -0.700000            -8.487049             0.011260
C             0.700000            -8.487049             0.047624
C             1.400000            -9.699485             0.015405
C             2.800000            -9.699485             0.089241
H             3.350000           -10.652112             0.051012
C            -9.100000            -3.637307             0.080848
C            -9.800000            -4.849742             0.094409
C            -9.100000            -6.062178             0.055705
C            -7.700000            -6.062178             0.079853
H            -9.650000            -2.684679             0.088970
H           -10.900000            -4.849742             0.041124
H            -9.650000            -7.014806             0.010115
C            -7.000000            -7.274613             0.034666
C            -5.600000            -7.274613             0.073983
H            -7.550000            -8.227241             0.042637
C            -4.900000            -8.487049             0.079327
C            -3.500000            -8.487049             0.000990
H            -5.450000            -9.439677             0.002999
C            -2.800000            -9.699485             0.058050
C            -1.400000            -9.699485             0.036921
H            -3.350000           -10.652112             0.083422
C            -0.700000           -10.911920             0.049685
C             0.700000           -10.911920             0.097525
H            -1.250000           -11.864548             0.040114
H             1.250000           -11.864548             0.054385
