92
isomero_19_20
C             0.700000             1.212436             0.096690
C            -0.700000             1.212436             0.082427
C            -1.400000             0.000000             0.027524
C            -0.700000            -1.212436             0.054459
C             0.700000            -1.212436             0.060660
C             1.400000            -0.000000             0.022351
H             1.250000             2.165064             0.060173
H            -1.250000             2.165064             0.084096
C             2.800000             0.000000             0.045780
C             1.400000            -2.424871             0.055256
C             2.800000            -2.424871             0.068167
C             3.500000            -1.212436             0.030342
H             3.350000             0.952628             0.093522
C             4.900000            -1.212436             0.086810
C             3.500000            -3.637307             0.060769
C             4.900000            -3.637307             0.007036
C             5.600000            -2.424871             0.062427
H             5.450000            -0.259808             0.012131
C             7.000000            -2.424871             0.044558
C             5.600000            -4.849742             0.070885
C             7.000000            -4.849742             0.016600
C             7.700000            -3.637307             0.083179
H             7.550000            -1.472243             0.080100
C             9.100000            -3.637307             0.062600
C             7.700000            -6.062178             0.092033
C             9.100000            -6.062178             0.089756
C             9.800000            -4.849742             0.086859
H             9.650000            -2.684679             0.005369
H             9.650000            -7.014806             0.096042
H            10.900000            -4.849742             0.049190
C            -2.800000             0.000000             0.028501
C            -3.500000            -1.212436             0.043589
C            -2.800000            -2.424871             0.075732
C            -1.400000            -2.424871             0.011484
H            -3.350000             0.952628             0.055081
C            -0.700000            -3.637307             0.094030
C             0.700000            -3.637307             0.057116
C             1.400000            -4.849742             0.047255
C             2.800000            -4.849742             0.035811
C             3.500000            -6.062178             0.045500
C             4.900000            -6.062178             0.076386
C             5.600000            -7.274613             0.090625
C             7.000000            -7.274613             0.052761
H             7.550000            -8.227241             0.030493
C            -4.900000            -1.212436             0.051199
B            -5.600000            -2.424871             0.091653
C            -4.900000            -3.637307             0.077555
C            -3.500000            -3.637307             0.075937
H            -5.450000            -0.259808             0.080573
C            -2.800000            -4.849742             0.080032
C            -1.400000            -4.849742             0.054020
C            -0.700000            -6.062178             0.033471
C             0.700000            -6.062178             0.004167
C             1.400000            -7.274613             0.009507
C             2.800000            -7.274613             0.015746
C             3.500000            -8.487049             0.089084
C             4.900000            -8.487049             0.049694
H             5.450000            -9.439677             0.030697
N            -7.000000            -2.424871             0.067471
C            -7.700000            -3.637307             0.069135
C            -7.000000            -4.849742             0.002333
C            -5.600000            -4.849742             0.099275
H            -7.550000            -1.472243             0.019906
C            -4.900000            -6.062178             0.020972
C            -3.500000            -6.062178             0.015015
C            -2.800000            -7.274613             0.091278
C            -1.400000            -7.274613             0.018613
C            -0.700000            -8.487049             0.056655
C             0.700000            -8.487049             0.051608
C             1.400000            -9.699485             0.089859
C             2.800000            -9.699485             0.090313
H             3.350000           -10.652112             0.092299
C            -9.100000            -3.637307             0.008071
C            -9.800000            -4.849742             0.080334
C            -9.100000            -6.062178             0.001964
C            -7.700000            -6.062178             0.090287
H            -9.650000            -2.684679             0.085555
H           -10.900000            -4.849742             0.018034
H            -9.650000            -7.014806             0.040665
C            -7.000000            -7.274613             0.005900
C            -5.600000            -7.274613             0.009431
H            -7.550000            -8.227241             0.053561
C            -4.900000            -8.487049             0.071511
C            -3.500000            -8.487049             0.020988
H            -5.450000            -9.439677             0.053617
C            -2.800000            -9.699485             0.068757
C            -1.400000            -9.699485             0.092696
H            -3.350000           -10.652112             0.088237
C            -0.700000           -10.911920             0.064457
C             0.700000           -10.911920             0.084329
H            -1.250000           -11.864548             0.045530
H             1.250000           -11.864548             0.030394
