92
isomero_6_5
C             0.700000             1.212436             0.043621
C            -0.700000             1.212436             0.083721
N            -1.400000             0.000000             0.036381
C            -0.700000            -1.212436             0.074268
C             0.700000            -1.212436             0.004428
C             1.400000            -0.000000             0.005038
H             1.250000             2.165064             0.042555
H            -1.250000             2.165064             0.083274
C             2.800000             0.000000             0.043567
C             1.400000            -2.424871             0.092552
C             2.800000            -2.424871             0.014537
C             3.500000            -1.212436             0.048411
H             3.350000             0.952628             0.006259
C             4.900000            -1.212436             0.060139
C             3.500000            -3.637307             0.098498
C             4.900000            -3.637307             0.008374
C             5.600000            -2.424871             0.078598
H             5.450000            -0.259808             0.099921
C             7.000000            -2.424871             0.062898
C             5.600000            -4.849742             0.042936
C             7.000000            -4.849742             0.092786
C             7.700000            -3.637307             0.036242
H             7.550000            -1.472243             0.086960
C             9.100000            -3.637307             0.025296
C             7.700000            -6.062178             0.028686
C             9.100000            -6.062178             0.041626
C             9.800000            -4.849742             0.079573
H             9.650000            -2.684679             0.051597
H             9.650000            -7.014806             0.039992
H            10.900000            -4.849742             0.055529
B            -2.800000             0.000000             0.003315
C            -3.500000            -1.212436             0.044974
C            -2.800000            -2.424871             0.072018
C            -1.400000            -2.424871             0.089440
H            -3.350000             0.952628             0.048367
C            -0.700000            -3.637307             0.036220
C             0.700000            -3.637307             0.073229
C             1.400000            -4.849742             0.061896
C             2.800000            -4.849742             0.092645
C             3.500000            -6.062178             0.036240
C             4.900000            -6.062178             0.084260
C             5.600000            -7.274613             0.051871
C             7.000000            -7.274613             0.087223
H             7.550000            -8.227241             0.047927
C            -4.900000            -1.212436             0.035669
C            -5.600000            -2.424871             0.005924
C            -4.900000            -3.637307             0.012075
C            -3.500000            -3.637307             0.081721
H            -5.450000            -0.259808             0.060892
C            -2.800000            -4.849742             0.092250
C            -1.400000            -4.849742             0.067118
C            -0.700000            -6.062178             0.002106
C             0.700000            -6.062178             0.056828
C             1.400000            -7.274613             0.082951
C             2.800000            -7.274613             0.019484
C             3.500000            -8.487049             0.022523
C             4.900000            -8.487049             0.054113
H             5.450000            -9.439677             0.011387
C            -7.000000            -2.424871             0.067827
C            -7.700000            -3.637307             0.012367
C            -7.000000            -4.849742             0.019068
C            -5.600000            -4.849742             0.041494
H            -7.550000            -1.472243             0.079384
C            -4.900000            -6.062178             0.090852
C            -3.500000            -6.062178             0.039012
C            -2.800000            -7.274613             0.003429
C            -1.400000            -7.274613             0.088885
C            -0.700000            -8.487049             0.081775
C             0.700000            -8.487049             0.070365
C             1.400000            -9.699485             0.098605
C             2.800000            -9.699485             0.077949
H             3.350000           -10.652112             0.094918
C            -9.100000            -3.637307             0.001172
C            -9.800000            -4.849742             0.010261
C            -9.100000            -6.062178             0.022166
C            -7.700000            -6.062178             0.020345
H            -9.650000            -2.684679             0.071147
H           -10.900000            -4.849742             0.077076
H            -9.650000            -7.014806             0.012186
C            -7.000000            -7.274613             0.053567
C            -5.600000            -7.274613             0.078086
H            -7.550000            -8.227241             0.036866
C            -4.900000            -8.487049             0.028030
C            -3.500000            -8.487049             0.004606
H            -5.450000            -9.439677             0.063199
C            -2.800000            -9.699485             0.073268
C            -1.400000            -9.699485             0.004612
H            -3.350000           -10.652112             0.009307
C            -0.700000           -10.911920             0.062090
C             0.700000           -10.911920             0.046804
H            -1.250000           -11.864548             0.043849
H             1.250000           -11.864548             0.087491
