92
isomero_6_11
C             0.700000             1.212436             0.032765
C            -0.700000             1.212436             0.057703
C            -1.400000             0.000000             0.040782
C            -0.700000            -1.212436             0.055638
C             0.700000            -1.212436             0.065091
C             1.400000            -0.000000             0.058933
H             1.250000             2.165064             0.085930
H            -1.250000             2.165064             0.003277
C             2.800000             0.000000             0.082460
C             1.400000            -2.424871             0.096199
C             2.800000            -2.424871             0.057413
C             3.500000            -1.212436             0.012957
H             3.350000             0.952628             0.077808
C             4.900000            -1.212436             0.097787
C             3.500000            -3.637307             0.058358
C             4.900000            -3.637307             0.080297
C             5.600000            -2.424871             0.024775
H             5.450000            -0.259808             0.000819
C             7.000000            -2.424871             0.093305
C             5.600000            -4.849742             0.038608
C             7.000000            -4.849742             0.059080
C             7.700000            -3.637307             0.048872
H             7.550000            -1.472243             0.022519
C             9.100000            -3.637307             0.069360
C             7.700000            -6.062178             0.076163
C             9.100000            -6.062178             0.033318
C             9.800000            -4.849742             0.064239
H             9.650000            -2.684679             0.063512
H             9.650000            -7.014806             0.008756
H            10.900000            -4.849742             0.027321
B            -2.800000             0.000000             0.012141
N            -3.500000            -1.212436             0.080096
C            -2.800000            -2.424871             0.067258
C            -1.400000            -2.424871             0.018728
H            -3.350000             0.952628             0.005610
C            -0.700000            -3.637307             0.088463
C             0.700000            -3.637307             0.008173
C             1.400000            -4.849742             0.028532
C             2.800000            -4.849742             0.085805
C             3.500000            -6.062178             0.004998
C             4.900000            -6.062178             0.081119
C             5.600000            -7.274613             0.029337
C             7.000000            -7.274613             0.047337
H             7.550000            -8.227241             0.010191
C            -4.900000            -1.212436             0.070544
C            -5.600000            -2.424871             0.021651
C            -4.900000            -3.637307             0.011090
C            -3.500000            -3.637307             0.001673
H            -5.450000            -0.259808             0.023356
C            -2.800000            -4.849742             0.049606
C            -1.400000            -4.849742             0.070424
C            -0.700000            -6.062178             0.025830
C             0.700000            -6.062178             0.021312
C             1.400000            -7.274613             0.061388
C             2.800000            -7.274613             0.033839
C             3.500000            -8.487049             0.099573
C             4.900000            -8.487049             0.048797
H             5.450000            -9.439677             0.084233
C            -7.000000            -2.424871             0.079365
C            -7.700000            -3.637307             0.027100
C            -7.000000            -4.849742             0.083831
C            -5.600000            -4.849742             0.044520
H            -7.550000            -1.472243             0.040408
C            -4.900000            -6.062178             0.040171
C            -3.500000            -6.062178             0.087787
C            -2.800000            -7.274613             0.046461
C            -1.400000            -7.274613             0.081534
C            -0.700000            -8.487049             0.054189
C             0.700000            -8.487049             0.077700
C             1.400000            -9.699485             0.014962
C             2.800000            -9.699485             0.057296
H             3.350000           -10.652112             0.099331
C            -9.100000            -3.637307             0.065586
C            -9.800000            -4.849742             0.070991
C            -9.100000            -6.062178             0.056940
C            -7.700000            -6.062178             0.094155
H            -9.650000            -2.684679             0.018112
H           -10.900000            -4.849742             0.053544
H            -9.650000            -7.014806             0.081409
C            -7.000000            -7.274613             0.079622
C            -5.600000            -7.274613             0.076637
H            -7.550000            -8.227241             0.009696
C            -4.900000            -8.487049             0.084024
C            -3.500000            -8.487049             0.056606
H            -5.450000            -9.439677             0.024379
C            -2.800000            -9.699485             0.095193
C            -1.400000            -9.699485             0.061209
H            -3.350000           -10.652112             0.072111
C            -0.700000           -10.911920             0.084935
C             0.700000           -10.911920             0.002183
H            -1.250000           -11.864548             0.007988
H             1.250000           -11.864548             0.081734
