92
isomero_17_10
C             0.700000             1.212436             0.004625
C            -0.700000             1.212436             0.072785
C            -1.400000             0.000000             0.026048
N            -0.700000            -1.212436             0.094129
C             0.700000            -1.212436             0.062448
C             1.400000            -0.000000             0.041050
H             1.250000             2.165064             0.031193
H            -1.250000             2.165064             0.045969
C             2.800000             0.000000             0.073211
C             1.400000            -2.424871             0.084293
C             2.800000            -2.424871             0.015518
C             3.500000            -1.212436             0.062595
H             3.350000             0.952628             0.060485
C             4.900000            -1.212436             0.089896
C             3.500000            -3.637307             0.078081
C             4.900000            -3.637307             0.000667
C             5.600000            -2.424871             0.080848
H             5.450000            -0.259808             0.008701
C             7.000000            -2.424871             0.095795
C             5.600000            -4.849742             0.001098
C             7.000000            -4.849742             0.022728
C             7.700000            -3.637307             0.054238
H             7.550000            -1.472243             0.064729
C             9.100000            -3.637307             0.019220
C             7.700000            -6.062178             0.062690
C             9.100000            -6.062178             0.053774
C             9.800000            -4.849742             0.094889
H             9.650000            -2.684679             0.021980
H             9.650000            -7.014806             0.036704
H            10.900000            -4.849742             0.039104
C            -2.800000             0.000000             0.016458
C            -3.500000            -1.212436             0.046728
C            -2.800000            -2.424871             0.042750
B            -1.400000            -2.424871             0.052966
H            -3.350000             0.952628             0.052046
C            -0.700000            -3.637307             0.034497
C             0.700000            -3.637307             0.035926
C             1.400000            -4.849742             0.066258
C             2.800000            -4.849742             0.096705
C             3.500000            -6.062178             0.041328
C             4.900000            -6.062178             0.087774
C             5.600000            -7.274613             0.025211
C             7.000000            -7.274613             0.098328
H             7.550000            -8.227241             0.065211
C            -4.900000            -1.212436             0.021582
C            -5.600000            -2.424871             0.021611
C            -4.900000            -3.637307             0.011833
C            -3.500000            -3.637307             0.016435
H            -5.450000            -0.259808             0.036757
C            -2.800000            -4.849742             0.000322
C            -1.400000            -4.849742             0.081772
C            -0.700000            -6.062178             0.045804
C             0.700000            -6.062178             0.019394
C             1.400000            -7.274613             0.079515
C             2.800000            -7.274613             0.033879
C             3.500000            -8.487049             0.009695
C             4.900000            -8.487049             0.090175
H             5.450000            -9.439677             0.078538
C            -7.000000            -2.424871             0.099481
C            -7.700000            -3.637307             0.093430
C            -7.000000            -4.849742             0.055411
C            -5.600000            -4.849742             0.025820
H            -7.550000            -1.472243             0.050283
C            -4.900000            -6.062178             0.046458
C            -3.500000            -6.062178             0.016041
C            -2.800000            -7.274613             0.089529
C            -1.400000            -7.274613             0.023970
C            -0.700000            -8.487049             0.068474
C             0.700000            -8.487049             0.056034
C             1.400000            -9.699485             0.087778
C             2.800000            -9.699485             0.033798
H             3.350000           -10.652112             0.008532
C            -9.100000            -3.637307             0.073244
C            -9.800000            -4.849742             0.000494
C            -9.100000            -6.062178             0.033948
C            -7.700000            -6.062178             0.043988
H            -9.650000            -2.684679             0.017414
H           -10.900000            -4.849742             0.044910
H            -9.650000            -7.014806             0.079597
C            -7.000000            -7.274613             0.008788
C            -5.600000            -7.274613             0.041421
H            -7.550000            -8.227241             0.058002
C            -4.900000            -8.487049             0.090734
C            -3.500000            -8.487049             0.001027
H            -5.450000            -9.439677             0.076887
C            -2.800000            -9.699485             0.063283
C            -1.400000            -9.699485             0.075684
H            -3.350000           -10.652112             0.071893
C            -0.700000           -10.911920             0.067916
C             0.700000           -10.911920             0.049517
H            -1.250000           -11.864548             0.074716
H             1.250000           -11.864548             0.077617
