92
isomero_17_18
C             0.700000             1.212436             0.021751
C            -0.700000             1.212436             0.060747
C            -1.400000             0.000000             0.077773
C            -0.700000            -1.212436             0.048635
C             0.700000            -1.212436             0.094386
C             1.400000            -0.000000             0.057409
H             1.250000             2.165064             0.003214
H            -1.250000             2.165064             0.071515
C             2.800000             0.000000             0.069118
C             1.400000            -2.424871             0.088266
C             2.800000            -2.424871             0.019138
C             3.500000            -1.212436             0.090524
H             3.350000             0.952628             0.006768
C             4.900000            -1.212436             0.007478
C             3.500000            -3.637307             0.041730
C             4.900000            -3.637307             0.069801
C             5.600000            -2.424871             0.008553
H             5.450000            -0.259808             0.011267
C             7.000000            -2.424871             0.084616
C             5.600000            -4.849742             0.038393
C             7.000000            -4.849742             0.027141
C             7.700000            -3.637307             0.048492
H             7.550000            -1.472243             0.075939
C             9.100000            -3.637307             0.036933
C             7.700000            -6.062178             0.055543
C             9.100000            -6.062178             0.010437
C             9.800000            -4.849742             0.098188
H             9.650000            -2.684679             0.075171
H             9.650000            -7.014806             0.006440
H            10.900000            -4.849742             0.098691
C            -2.800000             0.000000             0.042381
C            -3.500000            -1.212436             0.002905
N            -2.800000            -2.424871             0.009667
B            -1.400000            -2.424871             0.032973
H            -3.350000             0.952628             0.067088
C            -0.700000            -3.637307             0.089535
C             0.700000            -3.637307             0.088226
C             1.400000            -4.849742             0.087361
C             2.800000            -4.849742             0.061206
C             3.500000            -6.062178             0.047608
C             4.900000            -6.062178             0.003665
C             5.600000            -7.274613             0.014007
C             7.000000            -7.274613             0.084429
H             7.550000            -8.227241             0.002111
C            -4.900000            -1.212436             0.020867
C            -5.600000            -2.424871             0.065474
C            -4.900000            -3.637307             0.016201
C            -3.500000            -3.637307             0.081344
H            -5.450000            -0.259808             0.078485
C            -2.800000            -4.849742             0.037914
C            -1.400000            -4.849742             0.007707
C            -0.700000            -6.062178             0.071809
C             0.700000            -6.062178             0.043917
C             1.400000            -7.274613             0.094059
C             2.800000            -7.274613             0.054566
C             3.500000            -8.487049             0.068573
C             4.900000            -8.487049             0.019375
H             5.450000            -9.439677             0.068410
C            -7.000000            -2.424871             0.098790
C            -7.700000            -3.637307             0.007644
C            -7.000000            -4.849742             0.051430
C            -5.600000            -4.849742             0.006502
H            -7.550000            -1.472243             0.067761
C            -4.900000            -6.062178             0.034884
C            -3.500000            -6.062178             0.063580
C            -2.800000            -7.274613             0.036613
C            -1.400000            -7.274613             0.010052
C            -0.700000            -8.487049             0.021653
C             0.700000            -8.487049             0.097272
C             1.400000            -9.699485             0.063705
C             2.800000            -9.699485             0.027603
H             3.350000           -10.652112             0.026169
C            -9.100000            -3.637307             0.050631
C            -9.800000            -4.849742             0.056854
C            -9.100000            -6.062178             0.072365
C            -7.700000            -6.062178             0.024877
H            -9.650000            -2.684679             0.096152
H           -10.900000            -4.849742             0.017940
H            -9.650000            -7.014806             0.068439
C            -7.000000            -7.274613             0.074956
C            -5.600000            -7.274613             0.017008
H            -7.550000            -8.227241             0.091109
C            -4.900000            -8.487049             0.024648
C            -3.500000            -8.487049             0.055831
H            -5.450000            -9.439677             0.009816
C            -2.800000            -9.699485             0.013343
C            -1.400000            -9.699485             0.066196
H            -3.350000           -10.652112             0.098433
C            -0.700000           -10.911920             0.009602
C             0.700000           -10.911920             0.073875
H            -1.250000           -11.864548             0.043789
H             1.250000           -11.864548             0.088474
