92
isomero_5_2
C             0.700000             1.212436             0.041481
N            -0.700000             1.212436             0.092091
B            -1.400000             0.000000             0.061949
C            -0.700000            -1.212436             0.055467
C             0.700000            -1.212436             0.006979
C             1.400000            -0.000000             0.082646
H             1.250000             2.165064             0.006638
H            -1.250000             2.165064             0.042956
C             2.800000             0.000000             0.083835
C             1.400000            -2.424871             0.034094
C             2.800000            -2.424871             0.019040
C             3.500000            -1.212436             0.085301
H             3.350000             0.952628             0.006428
C             4.900000            -1.212436             0.035488
C             3.500000            -3.637307             0.054145
C             4.900000            -3.637307             0.020903
C             5.600000            -2.424871             0.099425
H             5.450000            -0.259808             0.028632
C             7.000000            -2.424871             0.087498
C             5.600000            -4.849742             0.036952
C             7.000000            -4.849742             0.039005
C             7.700000            -3.637307             0.022184
H             7.550000            -1.472243             0.026374
C             9.100000            -3.637307             0.085876
C             7.700000            -6.062178             0.001868
C             9.100000            -6.062178             0.071803
C             9.800000            -4.849742             0.017582
H             9.650000            -2.684679             0.036846
H             9.650000            -7.014806             0.083954
H            10.900000            -4.849742             0.083879
C            -2.800000             0.000000             0.099356
C            -3.500000            -1.212436             0.065579
C            -2.800000            -2.424871             0.029776
C            -1.400000            -2.424871             0.003857
H            -3.350000             0.952628             0.056122
C            -0.700000            -3.637307             0.068111
C             0.700000            -3.637307             0.084468
C             1.400000            -4.849742             0.096564
C             2.800000            -4.849742             0.093769
C             3.500000            -6.062178             0.061203
C             4.900000            -6.062178             0.091768
C             5.600000            -7.274613             0.074536
C             7.000000            -7.274613             0.044866
H             7.550000            -8.227241             0.010098
C            -4.900000            -1.212436             0.038204
C            -5.600000            -2.424871             0.016243
C            -4.900000            -3.637307             0.035230
C            -3.500000            -3.637307             0.065614
H            -5.450000            -0.259808             0.040558
C            -2.800000            -4.849742             0.077878
C            -1.400000            -4.849742             0.010780
C            -0.700000            -6.062178             0.095160
C             0.700000            -6.062178             0.020806
C             1.400000            -7.274613             0.097530
C             2.800000            -7.274613             0.050438
C             3.500000            -8.487049             0.050713
C             4.900000            -8.487049             0.085332
H             5.450000            -9.439677             0.004221
C            -7.000000            -2.424871             0.027194
C            -7.700000            -3.637307             0.066723
C            -7.000000            -4.849742             0.095650
C            -5.600000            -4.849742             0.097750
H            -7.550000            -1.472243             0.062076
C            -4.900000            -6.062178             0.076639
C            -3.500000            -6.062178             0.030585
C            -2.800000            -7.274613             0.040251
C            -1.400000            -7.274613             0.053453
C            -0.700000            -8.487049             0.093343
C             0.700000            -8.487049             0.020365
C             1.400000            -9.699485             0.061858
C             2.800000            -9.699485             0.071348
H             3.350000           -10.652112             0.004723
C            -9.100000            -3.637307             0.059040
C            -9.800000            -4.849742             0.060851
C            -9.100000            -6.062178             0.018206
C            -7.700000            -6.062178             0.048669
H            -9.650000            -2.684679             0.025265
H           -10.900000            -4.849742             0.007329
H            -9.650000            -7.014806             0.059151
C            -7.000000            -7.274613             0.082862
C            -5.600000            -7.274613             0.029544
H            -7.550000            -8.227241             0.023261
C            -4.900000            -8.487049             0.005223
C            -3.500000            -8.487049             0.010388
H            -5.450000            -9.439677             0.075298
C            -2.800000            -9.699485             0.072508
C            -1.400000            -9.699485             0.043083
H            -3.350000           -10.652112             0.012053
C            -0.700000           -10.911920             0.040025
C             0.700000           -10.911920             0.049299
H            -1.250000           -11.864548             0.049321
H             1.250000           -11.864548             0.032302
