92
isomero_27_28
C             0.700000             1.212436             0.073633
C            -0.700000             1.212436             0.038833
C            -1.400000             0.000000             0.083030
C            -0.700000            -1.212436             0.073670
C             0.700000            -1.212436             0.065081
C             1.400000            -0.000000             0.025593
H             1.250000             2.165064             0.033244
H            -1.250000             2.165064             0.052772
C             2.800000             0.000000             0.027192
C             1.400000            -2.424871             0.035397
C             2.800000            -2.424871             0.070186
C             3.500000            -1.212436             0.096303
H             3.350000             0.952628             0.073386
C             4.900000            -1.212436             0.022140
C             3.500000            -3.637307             0.088305
C             4.900000            -3.637307             0.018805
C             5.600000            -2.424871             0.087573
H             5.450000            -0.259808             0.020664
C             7.000000            -2.424871             0.051641
C             5.600000            -4.849742             0.014749
C             7.000000            -4.849742             0.095741
C             7.700000            -3.637307             0.088616
H             7.550000            -1.472243             0.044943
C             9.100000            -3.637307             0.073913
C             7.700000            -6.062178             0.019603
C             9.100000            -6.062178             0.096177
C             9.800000            -4.849742             0.049690
H             9.650000            -2.684679             0.018805
H             9.650000            -7.014806             0.089403
H            10.900000            -4.849742             0.021478
C            -2.800000             0.000000             0.026107
C            -3.500000            -1.212436             0.019374
C            -2.800000            -2.424871             0.073000
C            -1.400000            -2.424871             0.065569
H            -3.350000             0.952628             0.080349
C            -0.700000            -3.637307             0.045184
C             0.700000            -3.637307             0.052567
C             1.400000            -4.849742             0.074626
C             2.800000            -4.849742             0.016652
C             3.500000            -6.062178             0.013796
C             4.900000            -6.062178             0.088105
C             5.600000            -7.274613             0.064968
C             7.000000            -7.274613             0.099046
H             7.550000            -8.227241             0.032964
C            -4.900000            -1.212436             0.074547
C            -5.600000            -2.424871             0.095720
N            -4.900000            -3.637307             0.077147
B            -3.500000            -3.637307             0.064656
H            -5.450000            -0.259808             0.049313
C            -2.800000            -4.849742             0.083019
C            -1.400000            -4.849742             0.059030
C            -0.700000            -6.062178             0.027818
C             0.700000            -6.062178             0.079890
C             1.400000            -7.274613             0.016715
C             2.800000            -7.274613             0.038058
C             3.500000            -8.487049             0.000445
C             4.900000            -8.487049             0.045288
H             5.450000            -9.439677             0.099000
C            -7.000000            -2.424871             0.012781
C            -7.700000            -3.637307             0.021036
C            -7.000000            -4.849742             0.041461
C            -5.600000            -4.849742             0.082465
H            -7.550000            -1.472243             0.093302
C            -4.900000            -6.062178             0.028892
C            -3.500000            -6.062178             0.028142
C            -2.800000            -7.274613             0.041042
C            -1.400000            -7.274613             0.081999
C            -0.700000            -8.487049             0.048421
C             0.700000            -8.487049             0.047143
C             1.400000            -9.699485             0.034017
C             2.800000            -9.699485             0.062565
H             3.350000           -10.652112             0.005776
C            -9.100000            -3.637307             0.082773
C            -9.800000            -4.849742             0.046691
C            -9.100000            -6.062178             0.034425
C            -7.700000            -6.062178             0.023623
H            -9.650000            -2.684679             0.067813
H           -10.900000            -4.849742             0.094433
H            -9.650000            -7.014806             0.010094
C            -7.000000            -7.274613             0.069977
C            -5.600000            -7.274613             0.038932
H            -7.550000            -8.227241             0.007824
C            -4.900000            -8.487049             0.082684
C            -3.500000            -8.487049             0.070290
H            -5.450000            -9.439677             0.060443
C            -2.800000            -9.699485             0.006343
C            -1.400000            -9.699485             0.059471
H            -3.350000           -10.652112             0.039248
C            -0.700000           -10.911920             0.096815
C             0.700000           -10.911920             0.055508
H            -1.250000           -11.864548             0.048097
H             1.250000           -11.864548             0.055954
