92
isomero_12_19
C             0.700000             1.212436             0.067240
C            -0.700000             1.212436             0.087689
C            -1.400000             0.000000             0.006531
C            -0.700000            -1.212436             0.020856
C             0.700000            -1.212436             0.045825
C             1.400000            -0.000000             0.019798
H             1.250000             2.165064             0.066049
H            -1.250000             2.165064             0.039003
C             2.800000             0.000000             0.056311
C             1.400000            -2.424871             0.053878
C             2.800000            -2.424871             0.061778
C             3.500000            -1.212436             0.017785
H             3.350000             0.952628             0.032789
C             4.900000            -1.212436             0.002412
C             3.500000            -3.637307             0.094443
C             4.900000            -3.637307             0.067697
C             5.600000            -2.424871             0.030530
H             5.450000            -0.259808             0.029776
C             7.000000            -2.424871             0.007162
C             5.600000            -4.849742             0.075277
C             7.000000            -4.849742             0.053160
C             7.700000            -3.637307             0.030854
H             7.550000            -1.472243             0.040684
C             9.100000            -3.637307             0.045379
C             7.700000            -6.062178             0.090376
C             9.100000            -6.062178             0.026865
C             9.800000            -4.849742             0.031955
H             9.650000            -2.684679             0.064834
H             9.650000            -7.014806             0.078952
H            10.900000            -4.849742             0.088569
C            -2.800000             0.000000             0.003609
C            -3.500000            -1.212436             0.070234
C            -2.800000            -2.424871             0.071640
C            -1.400000            -2.424871             0.010738
H            -3.350000             0.952628             0.023465
C            -0.700000            -3.637307             0.055678
C             0.700000            -3.637307             0.036067
C             1.400000            -4.849742             0.050675
C             2.800000            -4.849742             0.010563
C             3.500000            -6.062178             0.034589
C             4.900000            -6.062178             0.060335
C             5.600000            -7.274613             0.067220
C             7.000000            -7.274613             0.044962
H             7.550000            -8.227241             0.055353
B            -4.900000            -1.212436             0.048378
N            -5.600000            -2.424871             0.001969
C            -4.900000            -3.637307             0.026092
C            -3.500000            -3.637307             0.031166
H            -5.450000            -0.259808             0.092173
C            -2.800000            -4.849742             0.027540
C            -1.400000            -4.849742             0.075181
C            -0.700000            -6.062178             0.066327
C             0.700000            -6.062178             0.047735
C             1.400000            -7.274613             0.033834
C             2.800000            -7.274613             0.003265
C             3.500000            -8.487049             0.058733
C             4.900000            -8.487049             0.005474
H             5.450000            -9.439677             0.023199
C            -7.000000            -2.424871             0.048946
C            -7.700000            -3.637307             0.080363
C            -7.000000            -4.849742             0.012103
C            -5.600000            -4.849742             0.062960
H            -7.550000            -1.472243             0.055320
C            -4.900000            -6.062178             0.088263
C            -3.500000            -6.062178             0.099031
C            -2.800000            -7.274613             0.003453
C            -1.400000            -7.274613             0.042007
C            -0.700000            -8.487049             0.037772
C             0.700000            -8.487049             0.037986
C             1.400000            -9.699485             0.058014
C             2.800000            -9.699485             0.058006
H             3.350000           -10.652112             0.098689
C            -9.100000            -3.637307             0.076129
C            -9.800000            -4.849742             0.028588
C            -9.100000            -6.062178             0.024746
C            -7.700000            -6.062178             0.097352
H            -9.650000            -2.684679             0.002728
H           -10.900000            -4.849742             0.044733
H            -9.650000            -7.014806             0.068654
C            -7.000000            -7.274613             0.044514
C            -5.600000            -7.274613             0.069142
H            -7.550000            -8.227241             0.014849
C            -4.900000            -8.487049             0.031211
C            -3.500000            -8.487049             0.012579
H            -5.450000            -9.439677             0.065845
C            -2.800000            -9.699485             0.085544
C            -1.400000            -9.699485             0.056789
H            -3.350000           -10.652112             0.081533
C            -0.700000           -10.911920             0.032120
C             0.700000           -10.911920             0.054437
H            -1.250000           -11.864548             0.095234
H             1.250000           -11.864548             0.095081
