74
isomero_13_21
C             0.700000             1.212436             0.091798
C            -0.700000             1.212436             0.005594
C            -1.400000             0.000000             0.070468
C            -0.700000            -1.212436             0.049798
C             0.700000            -1.212436             0.036581
C             1.400000            -0.000000             0.099821
H             1.250000             2.165064             0.095500
H            -1.250000             2.165064             0.051332
C             2.800000             0.000000             0.067028
C             1.400000            -2.424871             0.000189
C             2.800000            -2.424871             0.049295
C             3.500000            -1.212436             0.053126
H             3.350000             0.952628             0.030587
C             4.900000            -1.212436             0.085984
C             3.500000            -3.637307             0.006621
C             4.900000            -3.637307             0.053442
C             5.600000            -2.424871             0.000631
H             5.450000            -0.259808             0.066201
B             7.000000            -2.424871             0.053883
C             5.600000            -4.849742             0.044559
C             7.000000            -4.849742             0.078413
N             7.700000            -3.637307             0.016057
H             7.550000            -1.472243             0.015457
C             9.100000            -3.637307             0.081234
C             7.700000            -6.062178             0.097788
C             9.100000            -6.062178             0.028514
C             9.800000            -4.849742             0.065731
H             9.650000            -2.684679             0.080674
C            11.200000            -4.849742             0.082003
C             9.800000            -7.274613             0.030514
C            11.200000            -7.274613             0.007421
C            11.900000            -6.062178             0.061760
H            11.750000            -3.897114             0.013616
H            11.750000            -8.227241             0.080916
H            13.000000            -6.062178             0.097788
C            -2.800000             0.000000             0.090043
C            -3.500000            -1.212436             0.018276
C            -2.800000            -2.424871             0.092203
C            -1.400000            -2.424871             0.013656
H            -3.350000             0.952628             0.004335
C            -0.700000            -3.637307             0.067279
C             0.700000            -3.637307             0.012770
C             1.400000            -4.849742             0.021927
C             2.800000            -4.849742             0.065885
C             3.500000            -6.062178             0.032259
C             4.900000            -6.062178             0.050248
C             5.600000            -7.274613             0.053442
C             7.000000            -7.274613             0.045909
C             7.700000            -8.487049             0.051868
C             9.100000            -8.487049             0.057217
H             9.650000            -9.439677             0.038424
C            -4.900000            -1.212436             0.085608
C            -5.600000            -2.424871             0.035563
C            -4.900000            -3.637307             0.085859
C            -3.500000            -3.637307             0.042006
H            -5.450000            -0.259808             0.023040
H            -6.700000            -2.424871             0.072332
H            -5.450000            -4.589935             0.009356
C            -2.800000            -4.849742             0.015323
C            -1.400000            -4.849742             0.090507
H            -3.350000            -5.802370             0.057373
C            -0.700000            -6.062178             0.068235
C             0.700000            -6.062178             0.007825
H            -1.250000            -7.014806             0.035207
C             1.400000            -7.274613             0.035332
C             2.800000            -7.274613             0.011506
H             0.850000            -8.227241             0.049244
C             3.500000            -8.487049             0.043329
C             4.900000            -8.487049             0.023230
H             2.950000            -9.439677             0.019939
C             5.600000            -9.699485             0.025713
C             7.000000            -9.699485             0.009397
H             5.050000           -10.652112             0.026959
H             7.550000           -10.652112             0.019645
