74
isomero_7_8
C             0.700000             1.212436             0.046391
C            -0.700000             1.212436             0.095590
C            -1.400000             0.000000             0.097757
C            -0.700000            -1.212436             0.014297
C             0.700000            -1.212436             0.027279
C             1.400000            -0.000000             0.097088
H             1.250000             2.165064             0.077192
H            -1.250000             2.165064             0.060585
C             2.800000             0.000000             0.084238
C             1.400000            -2.424871             0.067859
C             2.800000            -2.424871             0.092351
N             3.500000            -1.212436             0.097473
H             3.350000             0.952628             0.005808
B             4.900000            -1.212436             0.002638
C             3.500000            -3.637307             0.070977
C             4.900000            -3.637307             0.063997
C             5.600000            -2.424871             0.046794
H             5.450000            -0.259808             0.055717
C             7.000000            -2.424871             0.009434
C             5.600000            -4.849742             0.081990
C             7.000000            -4.849742             0.037473
C             7.700000            -3.637307             0.091223
H             7.550000            -1.472243             0.083939
C             9.100000            -3.637307             0.059290
C             7.700000            -6.062178             0.009593
C             9.100000            -6.062178             0.023832
C             9.800000            -4.849742             0.002330
H             9.650000            -2.684679             0.015403
C            11.200000            -4.849742             0.088045
C             9.800000            -7.274613             0.011896
C            11.200000            -7.274613             0.085994
C            11.900000            -6.062178             0.086549
H            11.750000            -3.897114             0.089546
H            11.750000            -8.227241             0.001169
H            13.000000            -6.062178             0.079610
C            -2.800000             0.000000             0.018215
C            -3.500000            -1.212436             0.003231
C            -2.800000            -2.424871             0.016315
C            -1.400000            -2.424871             0.054818
H            -3.350000             0.952628             0.076840
C            -0.700000            -3.637307             0.077951
C             0.700000            -3.637307             0.034907
C             1.400000            -4.849742             0.070825
C             2.800000            -4.849742             0.033062
C             3.500000            -6.062178             0.061606
C             4.900000            -6.062178             0.045889
C             5.600000            -7.274613             0.021912
C             7.000000            -7.274613             0.043206
C             7.700000            -8.487049             0.063937
C             9.100000            -8.487049             0.083113
H             9.650000            -9.439677             0.070873
C            -4.900000            -1.212436             0.017977
C            -5.600000            -2.424871             0.057990
C            -4.900000            -3.637307             0.077790
C            -3.500000            -3.637307             0.075905
H            -5.450000            -0.259808             0.025062
H            -6.700000            -2.424871             0.034377
H            -5.450000            -4.589935             0.073073
C            -2.800000            -4.849742             0.028728
C            -1.400000            -4.849742             0.044389
H            -3.350000            -5.802370             0.083983
C            -0.700000            -6.062178             0.098366
C             0.700000            -6.062178             0.061455
H            -1.250000            -7.014806             0.017655
C             1.400000            -7.274613             0.006410
C             2.800000            -7.274613             0.068570
H             0.850000            -8.227241             0.022993
C             3.500000            -8.487049             0.066451
C             4.900000            -8.487049             0.084422
H             2.950000            -9.439677             0.073505
C             5.600000            -9.699485             0.089950
C             7.000000            -9.699485             0.024424
H             5.050000           -10.652112             0.088362
H             7.550000           -10.652112             0.004563
