74
isomero_1_4
B             0.700000             1.212436             0.063841
C            -0.700000             1.212436             0.075203
C            -1.400000             0.000000             0.025667
C            -0.700000            -1.212436             0.054866
C             0.700000            -1.212436             0.093804
N             1.400000            -0.000000             0.095007
H             1.250000             2.165064             0.060552
H            -1.250000             2.165064             0.081057
C             2.800000             0.000000             0.031510
C             1.400000            -2.424871             0.027213
C             2.800000            -2.424871             0.042874
C             3.500000            -1.212436             0.074726
H             3.350000             0.952628             0.046498
C             4.900000            -1.212436             0.098374
C             3.500000            -3.637307             0.084866
C             4.900000            -3.637307             0.032186
C             5.600000            -2.424871             0.017860
H             5.450000            -0.259808             0.085522
C             7.000000            -2.424871             0.086038
C             5.600000            -4.849742             0.010500
C             7.000000            -4.849742             0.076053
C             7.700000            -3.637307             0.013911
H             7.550000            -1.472243             0.060707
C             9.100000            -3.637307             0.079271
C             7.700000            -6.062178             0.021179
C             9.100000            -6.062178             0.003205
C             9.800000            -4.849742             0.080344
H             9.650000            -2.684679             0.003931
C            11.200000            -4.849742             0.074100
C             9.800000            -7.274613             0.033932
C            11.200000            -7.274613             0.041609
C            11.900000            -6.062178             0.019380
H            11.750000            -3.897114             0.094706
H            11.750000            -8.227241             0.013556
H            13.000000            -6.062178             0.046937
C            -2.800000             0.000000             0.085134
C            -3.500000            -1.212436             0.024682
C            -2.800000            -2.424871             0.043140
C            -1.400000            -2.424871             0.099421
H            -3.350000             0.952628             0.092765
C            -0.700000            -3.637307             0.004302
C             0.700000            -3.637307             0.054772
C             1.400000            -4.849742             0.000149
C             2.800000            -4.849742             0.072476
C             3.500000            -6.062178             0.061877
C             4.900000            -6.062178             0.037233
C             5.600000            -7.274613             0.029416
C             7.000000            -7.274613             0.005514
C             7.700000            -8.487049             0.070069
C             9.100000            -8.487049             0.089297
H             9.650000            -9.439677             0.072602
C            -4.900000            -1.212436             0.058552
C            -5.600000            -2.424871             0.095221
C            -4.900000            -3.637307             0.036075
C            -3.500000            -3.637307             0.009125
H            -5.450000            -0.259808             0.048692
H            -6.700000            -2.424871             0.016558
H            -5.450000            -4.589935             0.025732
C            -2.800000            -4.849742             0.000174
C            -1.400000            -4.849742             0.076325
H            -3.350000            -5.802370             0.076380
C            -0.700000            -6.062178             0.001568
C             0.700000            -6.062178             0.012375
H            -1.250000            -7.014806             0.008044
C             1.400000            -7.274613             0.007807
C             2.800000            -7.274613             0.059125
H             0.850000            -8.227241             0.049613
C             3.500000            -8.487049             0.049294
C             4.900000            -8.487049             0.064820
H             2.950000            -9.439677             0.084074
C             5.600000            -9.699485             0.001715
C             7.000000            -9.699485             0.084406
H             5.050000           -10.652112             0.077190
H             7.550000           -10.652112             0.028911
