74
isomero_11_6
C             0.700000             1.212436             0.037921
C            -0.700000             1.212436             0.089238
C            -1.400000             0.000000             0.062841
C            -0.700000            -1.212436             0.024722
C             0.700000            -1.212436             0.081860
C             1.400000            -0.000000             0.054753
H             1.250000             2.165064             0.020264
H            -1.250000             2.165064             0.086478
C             2.800000             0.000000             0.022225
C             1.400000            -2.424871             0.060120
C             2.800000            -2.424871             0.024642
C             3.500000            -1.212436             0.090302
H             3.350000             0.952628             0.063706
C             4.900000            -1.212436             0.014444
C             3.500000            -3.637307             0.023388
C             4.900000            -3.637307             0.078520
C             5.600000            -2.424871             0.087097
H             5.450000            -0.259808             0.055385
C             7.000000            -2.424871             0.089778
C             5.600000            -4.849742             0.094833
C             7.000000            -4.849742             0.029930
C             7.700000            -3.637307             0.049950
H             7.550000            -1.472243             0.039367
C             9.100000            -3.637307             0.094905
C             7.700000            -6.062178             0.093961
C             9.100000            -6.062178             0.073354
C             9.800000            -4.849742             0.035027
H             9.650000            -2.684679             0.033860
C            11.200000            -4.849742             0.078895
C             9.800000            -7.274613             0.079438
C            11.200000            -7.274613             0.035160
C            11.900000            -6.062178             0.033424
H            11.750000            -3.897114             0.040546
H            11.750000            -8.227241             0.055954
H            13.000000            -6.062178             0.070144
N            -2.800000             0.000000             0.082687
B            -3.500000            -1.212436             0.046717
C            -2.800000            -2.424871             0.018100
C            -1.400000            -2.424871             0.097368
H            -3.350000             0.952628             0.025270
C            -0.700000            -3.637307             0.046606
C             0.700000            -3.637307             0.003533
C             1.400000            -4.849742             0.013362
C             2.800000            -4.849742             0.008092
C             3.500000            -6.062178             0.078482
C             4.900000            -6.062178             0.018006
C             5.600000            -7.274613             0.032599
C             7.000000            -7.274613             0.029547
C             7.700000            -8.487049             0.010332
C             9.100000            -8.487049             0.094228
H             9.650000            -9.439677             0.020651
C            -4.900000            -1.212436             0.043115
C            -5.600000            -2.424871             0.005046
C            -4.900000            -3.637307             0.067579
C            -3.500000            -3.637307             0.011066
H            -5.450000            -0.259808             0.043399
H            -6.700000            -2.424871             0.083475
H            -5.450000            -4.589935             0.009678
C            -2.800000            -4.849742             0.078442
C            -1.400000            -4.849742             0.040223
H            -3.350000            -5.802370             0.064556
C            -0.700000            -6.062178             0.061071
C             0.700000            -6.062178             0.001446
H            -1.250000            -7.014806             0.058536
C             1.400000            -7.274613             0.042141
C             2.800000            -7.274613             0.003534
H             0.850000            -8.227241             0.065926
C             3.500000            -8.487049             0.077867
C             4.900000            -8.487049             0.017650
H             2.950000            -9.439677             0.092009
C             5.600000            -9.699485             0.032646
C             7.000000            -9.699485             0.028218
H             5.050000           -10.652112             0.070203
H             7.550000           -10.652112             0.093884
