74
isomero_28_36
C             0.700000             1.212436             0.029167
C            -0.700000             1.212436             0.087363
C            -1.400000             0.000000             0.064306
C            -0.700000            -1.212436             0.075129
C             0.700000            -1.212436             0.081872
C             1.400000            -0.000000             0.081004
H             1.250000             2.165064             0.038980
H            -1.250000             2.165064             0.004423
C             2.800000             0.000000             0.002413
C             1.400000            -2.424871             0.087186
C             2.800000            -2.424871             0.090599
C             3.500000            -1.212436             0.031690
H             3.350000             0.952628             0.076094
C             4.900000            -1.212436             0.064891
C             3.500000            -3.637307             0.082299
C             4.900000            -3.637307             0.085152
C             5.600000            -2.424871             0.027728
H             5.450000            -0.259808             0.011450
C             7.000000            -2.424871             0.060933
C             5.600000            -4.849742             0.015618
C             7.000000            -4.849742             0.005328
C             7.700000            -3.637307             0.037552
H             7.550000            -1.472243             0.093578
C             9.100000            -3.637307             0.020331
C             7.700000            -6.062178             0.042963
C             9.100000            -6.062178             0.050343
C             9.800000            -4.849742             0.020029
H             9.650000            -2.684679             0.062755
B            11.200000            -4.849742             0.001872
C             9.800000            -7.274613             0.081784
C            11.200000            -7.274613             0.033778
N            11.900000            -6.062178             0.017714
H            11.750000            -3.897114             0.027277
H            11.750000            -8.227241             0.067783
H            13.000000            -6.062178             0.044760
C            -2.800000             0.000000             0.089721
C            -3.500000            -1.212436             0.028371
C            -2.800000            -2.424871             0.055803
C            -1.400000            -2.424871             0.029786
H            -3.350000             0.952628             0.094504
C            -0.700000            -3.637307             0.075630
C             0.700000            -3.637307             0.057606
C             1.400000            -4.849742             0.043600
C             2.800000            -4.849742             0.081010
C             3.500000            -6.062178             0.062182
C             4.900000            -6.062178             0.036170
C             5.600000            -7.274613             0.005858
C             7.000000            -7.274613             0.074876
C             7.700000            -8.487049             0.099905
C             9.100000            -8.487049             0.058428
H             9.650000            -9.439677             0.020453
C            -4.900000            -1.212436             0.076657
C            -5.600000            -2.424871             0.099396
C            -4.900000            -3.637307             0.032462
C            -3.500000            -3.637307             0.074061
H            -5.450000            -0.259808             0.075131
H            -6.700000            -2.424871             0.073522
H            -5.450000            -4.589935             0.067450
C            -2.800000            -4.849742             0.099029
C            -1.400000            -4.849742             0.043990
H            -3.350000            -5.802370             0.070401
C            -0.700000            -6.062178             0.086929
C             0.700000            -6.062178             0.006419
H            -1.250000            -7.014806             0.018628
C             1.400000            -7.274613             0.000556
C             2.800000            -7.274613             0.086511
H             0.850000            -8.227241             0.056047
C             3.500000            -8.487049             0.008945
C             4.900000            -8.487049             0.042406
H             2.950000            -9.439677             0.005099
C             5.600000            -9.699485             0.020138
C             7.000000            -9.699485             0.014438
H             5.050000           -10.652112             0.046059
H             7.550000           -10.652112             0.080121
