74
isomero_10_5
C             0.700000             1.212436             0.069609
C            -0.700000             1.212436             0.077972
N            -1.400000             0.000000             0.087844
B            -0.700000            -1.212436             0.023001
C             0.700000            -1.212436             0.080036
C             1.400000            -0.000000             0.075322
H             1.250000             2.165064             0.098234
H            -1.250000             2.165064             0.011109
C             2.800000             0.000000             0.071686
C             1.400000            -2.424871             0.066669
C             2.800000            -2.424871             0.017798
C             3.500000            -1.212436             0.035468
H             3.350000             0.952628             0.038981
C             4.900000            -1.212436             0.058508
C             3.500000            -3.637307             0.019461
C             4.900000            -3.637307             0.017313
C             5.600000            -2.424871             0.091787
H             5.450000            -0.259808             0.035455
C             7.000000            -2.424871             0.006813
C             5.600000            -4.849742             0.019642
C             7.000000            -4.849742             0.050354
C             7.700000            -3.637307             0.039276
H             7.550000            -1.472243             0.090531
C             9.100000            -3.637307             0.024339
C             7.700000            -6.062178             0.023289
C             9.100000            -6.062178             0.001607
C             9.800000            -4.849742             0.045002
H             9.650000            -2.684679             0.069553
C            11.200000            -4.849742             0.070595
C             9.800000            -7.274613             0.045999
C            11.200000            -7.274613             0.009774
C            11.900000            -6.062178             0.064926
H            11.750000            -3.897114             0.062745
H            11.750000            -8.227241             0.014896
H            13.000000            -6.062178             0.020207
C            -2.800000             0.000000             0.066271
C            -3.500000            -1.212436             0.032945
C            -2.800000            -2.424871             0.028045
C            -1.400000            -2.424871             0.041151
H            -3.350000             0.952628             0.085356
C            -0.700000            -3.637307             0.030453
C             0.700000            -3.637307             0.075969
C             1.400000            -4.849742             0.054720
C             2.800000            -4.849742             0.077782
C             3.500000            -6.062178             0.078706
C             4.900000            -6.062178             0.094382
C             5.600000            -7.274613             0.011263
C             7.000000            -7.274613             0.086659
C             7.700000            -8.487049             0.084970
C             9.100000            -8.487049             0.029513
H             9.650000            -9.439677             0.023336
C            -4.900000            -1.212436             0.047721
C            -5.600000            -2.424871             0.019106
C            -4.900000            -3.637307             0.091399
C            -3.500000            -3.637307             0.031586
H            -5.450000            -0.259808             0.010874
H            -6.700000            -2.424871             0.043928
H            -5.450000            -4.589935             0.053788
C            -2.800000            -4.849742             0.004918
C            -1.400000            -4.849742             0.055143
H            -3.350000            -5.802370             0.059143
C            -0.700000            -6.062178             0.027524
C             0.700000            -6.062178             0.041843
H            -1.250000            -7.014806             0.049913
C             1.400000            -7.274613             0.061315
C             2.800000            -7.274613             0.083828
H             0.850000            -8.227241             0.089640
C             3.500000            -8.487049             0.048669
C             4.900000            -8.487049             0.025073
H             2.950000            -9.439677             0.015207
C             5.600000            -9.699485             0.062245
C             7.000000            -9.699485             0.085867
H             5.050000           -10.652112             0.089075
H             7.550000           -10.652112             0.015708
