74
isomero_16_15
C             0.700000             1.212436             0.057359
C            -0.700000             1.212436             0.043095
C            -1.400000             0.000000             0.048619
C            -0.700000            -1.212436             0.067853
C             0.700000            -1.212436             0.020321
C             1.400000            -0.000000             0.036828
H             1.250000             2.165064             0.075989
H            -1.250000             2.165064             0.010500
C             2.800000             0.000000             0.063913
B             1.400000            -2.424871             0.075556
N             2.800000            -2.424871             0.064620
C             3.500000            -1.212436             0.066842
H             3.350000             0.952628             0.059229
C             4.900000            -1.212436             0.074032
C             3.500000            -3.637307             0.046408
C             4.900000            -3.637307             0.014358
C             5.600000            -2.424871             0.031872
H             5.450000            -0.259808             0.084785
C             7.000000            -2.424871             0.065782
C             5.600000            -4.849742             0.038896
C             7.000000            -4.849742             0.091701
C             7.700000            -3.637307             0.052760
H             7.550000            -1.472243             0.015891
C             9.100000            -3.637307             0.069301
C             7.700000            -6.062178             0.078341
C             9.100000            -6.062178             0.084645
C             9.800000            -4.849742             0.045729
H             9.650000            -2.684679             0.008896
C            11.200000            -4.849742             0.013562
C             9.800000            -7.274613             0.057132
C            11.200000            -7.274613             0.062354
C            11.900000            -6.062178             0.069715
H            11.750000            -3.897114             0.041573
H            11.750000            -8.227241             0.013873
H            13.000000            -6.062178             0.031010
C            -2.800000             0.000000             0.071236
C            -3.500000            -1.212436             0.021245
C            -2.800000            -2.424871             0.073380
C            -1.400000            -2.424871             0.038934
H            -3.350000             0.952628             0.002110
C            -0.700000            -3.637307             0.065083
C             0.700000            -3.637307             0.063436
C             1.400000            -4.849742             0.071843
C             2.800000            -4.849742             0.080162
C             3.500000            -6.062178             0.068087
C             4.900000            -6.062178             0.027699
C             5.600000            -7.274613             0.065446
C             7.000000            -7.274613             0.076478
C             7.700000            -8.487049             0.029198
C             9.100000            -8.487049             0.081849
H             9.650000            -9.439677             0.007772
C            -4.900000            -1.212436             0.090888
C            -5.600000            -2.424871             0.099767
C            -4.900000            -3.637307             0.041880
C            -3.500000            -3.637307             0.026591
H            -5.450000            -0.259808             0.025996
H            -6.700000            -2.424871             0.034011
H            -5.450000            -4.589935             0.078858
C            -2.800000            -4.849742             0.063652
C            -1.400000            -4.849742             0.074723
H            -3.350000            -5.802370             0.090319
C            -0.700000            -6.062178             0.099997
C             0.700000            -6.062178             0.097721
H            -1.250000            -7.014806             0.047598
C             1.400000            -7.274613             0.047773
C             2.800000            -7.274613             0.006861
H             0.850000            -8.227241             0.030473
C             3.500000            -8.487049             0.092310
C             4.900000            -8.487049             0.068617
H             2.950000            -9.439677             0.028638
C             5.600000            -9.699485             0.043390
C             7.000000            -9.699485             0.036741
H             5.050000           -10.652112             0.050026
H             7.550000           -10.652112             0.015761
