74
isomero_22_23
C             0.700000             1.212436             0.045215
C            -0.700000             1.212436             0.049037
C            -1.400000             0.000000             0.046776
C            -0.700000            -1.212436             0.077387
C             0.700000            -1.212436             0.036262
C             1.400000            -0.000000             0.071539
H             1.250000             2.165064             0.015733
H            -1.250000             2.165064             0.049859
C             2.800000             0.000000             0.019660
C             1.400000            -2.424871             0.018312
C             2.800000            -2.424871             0.067719
C             3.500000            -1.212436             0.089707
H             3.350000             0.952628             0.060226
C             4.900000            -1.212436             0.025987
N             3.500000            -3.637307             0.058242
B             4.900000            -3.637307             0.047696
C             5.600000            -2.424871             0.086832
H             5.450000            -0.259808             0.067578
C             7.000000            -2.424871             0.060743
C             5.600000            -4.849742             0.088023
C             7.000000            -4.849742             0.080573
C             7.700000            -3.637307             0.059903
H             7.550000            -1.472243             0.018507
C             9.100000            -3.637307             0.093174
C             7.700000            -6.062178             0.065978
C             9.100000            -6.062178             0.069407
C             9.800000            -4.849742             0.080417
H             9.650000            -2.684679             0.037967
C            11.200000            -4.849742             0.024986
C             9.800000            -7.274613             0.032850
C            11.200000            -7.274613             0.097822
C            11.900000            -6.062178             0.024526
H            11.750000            -3.897114             0.039273
H            11.750000            -8.227241             0.002648
H            13.000000            -6.062178             0.077545
C            -2.800000             0.000000             0.044443
C            -3.500000            -1.212436             0.011691
C            -2.800000            -2.424871             0.099708
C            -1.400000            -2.424871             0.067899
H            -3.350000             0.952628             0.044211
C            -0.700000            -3.637307             0.015273
C             0.700000            -3.637307             0.031132
C             1.400000            -4.849742             0.053389
C             2.800000            -4.849742             0.043154
C             3.500000            -6.062178             0.089139
C             4.900000            -6.062178             0.015240
C             5.600000            -7.274613             0.050803
C             7.000000            -7.274613             0.072532
C             7.700000            -8.487049             0.072741
C             9.100000            -8.487049             0.080677
H             9.650000            -9.439677             0.069205
C            -4.900000            -1.212436             0.054205
C            -5.600000            -2.424871             0.013154
C            -4.900000            -3.637307             0.044555
C            -3.500000            -3.637307             0.049159
H            -5.450000            -0.259808             0.069886
H            -6.700000            -2.424871             0.052740
H            -5.450000            -4.589935             0.022583
C            -2.800000            -4.849742             0.047625
C            -1.400000            -4.849742             0.004358
H            -3.350000            -5.802370             0.081350
C            -0.700000            -6.062178             0.019982
C             0.700000            -6.062178             0.052315
H            -1.250000            -7.014806             0.072839
C             1.400000            -7.274613             0.005825
C             2.800000            -7.274613             0.042103
H             0.850000            -8.227241             0.007958
C             3.500000            -8.487049             0.051353
C             4.900000            -8.487049             0.056599
H             2.950000            -9.439677             0.029365
C             5.600000            -9.699485             0.086858
C             7.000000            -9.699485             0.073616
H             5.050000           -10.652112             0.066340
H             7.550000           -10.652112             0.096202
