74
isomero_2_1
N             0.700000             1.212436             0.070063
B            -0.700000             1.212436             0.091304
C            -1.400000             0.000000             0.094490
C            -0.700000            -1.212436             0.026797
C             0.700000            -1.212436             0.015436
C             1.400000            -0.000000             0.037060
H             1.250000             2.165064             0.022281
H            -1.250000             2.165064             0.002626
C             2.800000             0.000000             0.018108
C             1.400000            -2.424871             0.024385
C             2.800000            -2.424871             0.099712
C             3.500000            -1.212436             0.065493
H             3.350000             0.952628             0.011783
C             4.900000            -1.212436             0.082477
C             3.500000            -3.637307             0.073142
C             4.900000            -3.637307             0.071438
C             5.600000            -2.424871             0.055722
H             5.450000            -0.259808             0.038107
C             7.000000            -2.424871             0.034736
C             5.600000            -4.849742             0.008538
C             7.000000            -4.849742             0.021217
C             7.700000            -3.637307             0.008857
H             7.550000            -1.472243             0.075953
C             9.100000            -3.637307             0.006962
C             7.700000            -6.062178             0.058578
C             9.100000            -6.062178             0.028279
C             9.800000            -4.849742             0.052166
H             9.650000            -2.684679             0.097427
C            11.200000            -4.849742             0.068421
C             9.800000            -7.274613             0.040148
C            11.200000            -7.274613             0.010477
C            11.900000            -6.062178             0.041489
H            11.750000            -3.897114             0.054770
H            11.750000            -8.227241             0.023135
H            13.000000            -6.062178             0.000603
C            -2.800000             0.000000             0.054114
C            -3.500000            -1.212436             0.087990
C            -2.800000            -2.424871             0.037842
C            -1.400000            -2.424871             0.082650
H            -3.350000             0.952628             0.015274
C            -0.700000            -3.637307             0.060028
C             0.700000            -3.637307             0.083836
C             1.400000            -4.849742             0.032230
C             2.800000            -4.849742             0.040596
C             3.500000            -6.062178             0.041455
C             4.900000            -6.062178             0.057809
C             5.600000            -7.274613             0.012863
C             7.000000            -7.274613             0.010417
C             7.700000            -8.487049             0.014360
C             9.100000            -8.487049             0.043976
H             9.650000            -9.439677             0.047185
C            -4.900000            -1.212436             0.068669
C            -5.600000            -2.424871             0.035934
C            -4.900000            -3.637307             0.030947
C            -3.500000            -3.637307             0.004116
H            -5.450000            -0.259808             0.094752
H            -6.700000            -2.424871             0.007462
H            -5.450000            -4.589935             0.094970
C            -2.800000            -4.849742             0.023246
C            -1.400000            -4.849742             0.008547
H            -3.350000            -5.802370             0.072850
C            -0.700000            -6.062178             0.075400
C             0.700000            -6.062178             0.089517
H            -1.250000            -7.014806             0.060293
C             1.400000            -7.274613             0.048170
C             2.800000            -7.274613             0.032075
H             0.850000            -8.227241             0.046324
C             3.500000            -8.487049             0.045747
C             4.900000            -8.487049             0.058962
H             2.950000            -9.439677             0.073454
C             5.600000            -9.699485             0.099932
C             7.000000            -9.699485             0.082790
H             5.050000           -10.652112             0.027954
H             7.550000           -10.652112             0.083178
