74
isomero_8_15
C             0.700000             1.212436             0.087544
C            -0.700000             1.212436             0.005417
C            -1.400000             0.000000             0.007127
C            -0.700000            -1.212436             0.019541
C             0.700000            -1.212436             0.054164
C             1.400000            -0.000000             0.054629
H             1.250000             2.165064             0.026187
H            -1.250000             2.165064             0.020938
C             2.800000             0.000000             0.073620
C             1.400000            -2.424871             0.040610
N             2.800000            -2.424871             0.051549
B             3.500000            -1.212436             0.071058
H             3.350000             0.952628             0.099147
C             4.900000            -1.212436             0.015595
C             3.500000            -3.637307             0.047439
C             4.900000            -3.637307             0.047928
C             5.600000            -2.424871             0.042391
H             5.450000            -0.259808             0.048734
C             7.000000            -2.424871             0.099428
C             5.600000            -4.849742             0.008136
C             7.000000            -4.849742             0.001381
C             7.700000            -3.637307             0.098654
H             7.550000            -1.472243             0.095018
C             9.100000            -3.637307             0.078428
C             7.700000            -6.062178             0.007426
C             9.100000            -6.062178             0.041759
C             9.800000            -4.849742             0.035924
H             9.650000            -2.684679             0.098670
C            11.200000            -4.849742             0.093905
C             9.800000            -7.274613             0.001544
C            11.200000            -7.274613             0.047326
C            11.900000            -6.062178             0.089816
H            11.750000            -3.897114             0.014367
H            11.750000            -8.227241             0.024573
H            13.000000            -6.062178             0.013147
C            -2.800000             0.000000             0.070308
C            -3.500000            -1.212436             0.033005
C            -2.800000            -2.424871             0.010348
C            -1.400000            -2.424871             0.022132
H            -3.350000             0.952628             0.085017
C            -0.700000            -3.637307             0.078812
C             0.700000            -3.637307             0.018567
C             1.400000            -4.849742             0.039484
C             2.800000            -4.849742             0.025963
C             3.500000            -6.062178             0.059877
C             4.900000            -6.062178             0.066782
C             5.600000            -7.274613             0.007644
C             7.000000            -7.274613             0.039268
C             7.700000            -8.487049             0.023156
C             9.100000            -8.487049             0.094617
H             9.650000            -9.439677             0.035942
C            -4.900000            -1.212436             0.029073
C            -5.600000            -2.424871             0.009594
C            -4.900000            -3.637307             0.064494
C            -3.500000            -3.637307             0.049612
H            -5.450000            -0.259808             0.026644
H            -6.700000            -2.424871             0.073287
H            -5.450000            -4.589935             0.094930
C            -2.800000            -4.849742             0.096572
C            -1.400000            -4.849742             0.082845
H            -3.350000            -5.802370             0.018988
C            -0.700000            -6.062178             0.078447
C             0.700000            -6.062178             0.045972
H            -1.250000            -7.014806             0.012537
C             1.400000            -7.274613             0.038312
C             2.800000            -7.274613             0.006743
H             0.850000            -8.227241             0.091051
C             3.500000            -8.487049             0.097541
C             4.900000            -8.487049             0.069808
H             2.950000            -9.439677             0.024596
C             5.600000            -9.699485             0.067544
C             7.000000            -9.699485             0.008991
H             5.050000           -10.652112             0.096836
H             7.550000           -10.652112             0.066478
