74
isomero_23_15
C             0.700000             1.212436             0.009946
C            -0.700000             1.212436             0.004023
C            -1.400000             0.000000             0.039511
C            -0.700000            -1.212436             0.059786
C             0.700000            -1.212436             0.001101
C             1.400000            -0.000000             0.030045
H             1.250000             2.165064             0.034749
H            -1.250000             2.165064             0.068819
C             2.800000             0.000000             0.033679
C             1.400000            -2.424871             0.012683
N             2.800000            -2.424871             0.053303
C             3.500000            -1.212436             0.090425
H             3.350000             0.952628             0.028273
C             4.900000            -1.212436             0.052761
B             3.500000            -3.637307             0.079480
C             4.900000            -3.637307             0.030455
C             5.600000            -2.424871             0.001458
H             5.450000            -0.259808             0.074497
C             7.000000            -2.424871             0.028481
C             5.600000            -4.849742             0.092799
C             7.000000            -4.849742             0.000579
C             7.700000            -3.637307             0.047183
H             7.550000            -1.472243             0.013773
C             9.100000            -3.637307             0.028569
C             7.700000            -6.062178             0.053815
C             9.100000            -6.062178             0.033751
C             9.800000            -4.849742             0.081370
H             9.650000            -2.684679             0.052330
C            11.200000            -4.849742             0.018611
C             9.800000            -7.274613             0.088045
C            11.200000            -7.274613             0.005561
C            11.900000            -6.062178             0.053750
H            11.750000            -3.897114             0.063147
H            11.750000            -8.227241             0.088048
H            13.000000            -6.062178             0.075416
C            -2.800000             0.000000             0.037399
C            -3.500000            -1.212436             0.084688
C            -2.800000            -2.424871             0.049355
C            -1.400000            -2.424871             0.013189
H            -3.350000             0.952628             0.046101
C            -0.700000            -3.637307             0.011533
C             0.700000            -3.637307             0.028767
C             1.400000            -4.849742             0.040515
C             2.800000            -4.849742             0.007008
C             3.500000            -6.062178             0.039072
C             4.900000            -6.062178             0.076494
C             5.600000            -7.274613             0.093484
C             7.000000            -7.274613             0.093872
C             7.700000            -8.487049             0.031011
C             9.100000            -8.487049             0.064769
H             9.650000            -9.439677             0.091917
C            -4.900000            -1.212436             0.064607
C            -5.600000            -2.424871             0.018345
C            -4.900000            -3.637307             0.085000
C            -3.500000            -3.637307             0.097837
H            -5.450000            -0.259808             0.032492
H            -6.700000            -2.424871             0.025441
H            -5.450000            -4.589935             0.056862
C            -2.800000            -4.849742             0.073294
C            -1.400000            -4.849742             0.062932
H            -3.350000            -5.802370             0.002751
C            -0.700000            -6.062178             0.029579
C             0.700000            -6.062178             0.012095
H            -1.250000            -7.014806             0.014370
C             1.400000            -7.274613             0.073290
C             2.800000            -7.274613             0.046112
H             0.850000            -8.227241             0.053365
C             3.500000            -8.487049             0.028917
C             4.900000            -8.487049             0.084036
H             2.950000            -9.439677             0.015850
C             5.600000            -9.699485             0.002293
C             7.000000            -9.699485             0.059937
H             5.050000           -10.652112             0.064846
H             7.550000           -10.652112             0.048895
