74
isomero_6_11
C             0.700000             1.212436             0.073101
C            -0.700000             1.212436             0.083316
C            -1.400000             0.000000             0.070776
C            -0.700000            -1.212436             0.015815
C             0.700000            -1.212436             0.097682
C             1.400000            -0.000000             0.055980
H             1.250000             2.165064             0.047215
H            -1.250000             2.165064             0.039529
C             2.800000             0.000000             0.008436
C             1.400000            -2.424871             0.027637
C             2.800000            -2.424871             0.036697
C             3.500000            -1.212436             0.079717
H             3.350000             0.952628             0.001183
C             4.900000            -1.212436             0.022969
C             3.500000            -3.637307             0.068707
C             4.900000            -3.637307             0.003668
C             5.600000            -2.424871             0.078635
H             5.450000            -0.259808             0.066098
C             7.000000            -2.424871             0.075510
C             5.600000            -4.849742             0.051765
C             7.000000            -4.849742             0.099033
C             7.700000            -3.637307             0.017793
H             7.550000            -1.472243             0.043703
C             9.100000            -3.637307             0.063059
C             7.700000            -6.062178             0.067361
C             9.100000            -6.062178             0.091750
C             9.800000            -4.849742             0.090760
H             9.650000            -2.684679             0.006382
C            11.200000            -4.849742             0.063723
C             9.800000            -7.274613             0.048109
C            11.200000            -7.274613             0.028751
C            11.900000            -6.062178             0.072154
H            11.750000            -3.897114             0.050489
H            11.750000            -8.227241             0.067730
H            13.000000            -6.062178             0.080239
B            -2.800000             0.000000             0.068333
N            -3.500000            -1.212436             0.011549
C            -2.800000            -2.424871             0.095764
C            -1.400000            -2.424871             0.033555
H            -3.350000             0.952628             0.031829
C            -0.700000            -3.637307             0.066835
C             0.700000            -3.637307             0.014679
C             1.400000            -4.849742             0.027800
C             2.800000            -4.849742             0.065942
C             3.500000            -6.062178             0.054223
C             4.900000            -6.062178             0.028409
C             5.600000            -7.274613             0.097620
C             7.000000            -7.274613             0.057458
C             7.700000            -8.487049             0.072720
C             9.100000            -8.487049             0.087931
H             9.650000            -9.439677             0.066208
C            -4.900000            -1.212436             0.052180
C            -5.600000            -2.424871             0.025477
C            -4.900000            -3.637307             0.067368
C            -3.500000            -3.637307             0.085910
H            -5.450000            -0.259808             0.047253
H            -6.700000            -2.424871             0.091253
H            -5.450000            -4.589935             0.006250
C            -2.800000            -4.849742             0.048756
C            -1.400000            -4.849742             0.091507
H            -3.350000            -5.802370             0.048982
C            -0.700000            -6.062178             0.048430
C             0.700000            -6.062178             0.027413
H            -1.250000            -7.014806             0.009109
C             1.400000            -7.274613             0.066594
C             2.800000            -7.274613             0.012556
H             0.850000            -8.227241             0.010881
C             3.500000            -8.487049             0.044290
C             4.900000            -8.487049             0.055311
H             2.950000            -9.439677             0.096254
C             5.600000            -9.699485             0.057151
C             7.000000            -9.699485             0.007589
H             5.050000           -10.652112             0.036247
H             7.550000           -10.652112             0.001948
