74
isomero_12_11
C             0.700000             1.212436             0.039528
C            -0.700000             1.212436             0.005978
C            -1.400000             0.000000             0.062074
C            -0.700000            -1.212436             0.016519
C             0.700000            -1.212436             0.032933
C             1.400000            -0.000000             0.026994
H             1.250000             2.165064             0.054109
H            -1.250000             2.165064             0.085373
C             2.800000             0.000000             0.043221
C             1.400000            -2.424871             0.057802
C             2.800000            -2.424871             0.013648
C             3.500000            -1.212436             0.058154
H             3.350000             0.952628             0.067120
C             4.900000            -1.212436             0.083694
C             3.500000            -3.637307             0.063440
C             4.900000            -3.637307             0.021182
C             5.600000            -2.424871             0.090670
H             5.450000            -0.259808             0.040515
C             7.000000            -2.424871             0.088864
C             5.600000            -4.849742             0.057505
C             7.000000            -4.849742             0.001671
C             7.700000            -3.637307             0.054040
H             7.550000            -1.472243             0.085265
C             9.100000            -3.637307             0.022258
C             7.700000            -6.062178             0.063701
C             9.100000            -6.062178             0.071248
C             9.800000            -4.849742             0.033373
H             9.650000            -2.684679             0.005078
C            11.200000            -4.849742             0.045934
C             9.800000            -7.274613             0.086561
C            11.200000            -7.274613             0.077586
C            11.900000            -6.062178             0.034202
H            11.750000            -3.897114             0.074820
H            11.750000            -8.227241             0.062479
H            13.000000            -6.062178             0.072809
C            -2.800000             0.000000             0.067012
N            -3.500000            -1.212436             0.048518
C            -2.800000            -2.424871             0.057400
C            -1.400000            -2.424871             0.080039
H            -3.350000             0.952628             0.044962
C            -0.700000            -3.637307             0.027602
C             0.700000            -3.637307             0.072584
C             1.400000            -4.849742             0.039708
C             2.800000            -4.849742             0.038884
C             3.500000            -6.062178             0.060593
C             4.900000            -6.062178             0.001859
C             5.600000            -7.274613             0.069082
C             7.000000            -7.274613             0.046400
C             7.700000            -8.487049             0.076910
C             9.100000            -8.487049             0.033495
H             9.650000            -9.439677             0.016208
B            -4.900000            -1.212436             0.058471
C            -5.600000            -2.424871             0.024660
C            -4.900000            -3.637307             0.009840
C            -3.500000            -3.637307             0.040982
H            -5.450000            -0.259808             0.082319
H            -6.700000            -2.424871             0.016399
H            -5.450000            -4.589935             0.020568
C            -2.800000            -4.849742             0.009755
C            -1.400000            -4.849742             0.077013
H            -3.350000            -5.802370             0.098472
C            -0.700000            -6.062178             0.044139
C             0.700000            -6.062178             0.013063
H            -1.250000            -7.014806             0.024500
C             1.400000            -7.274613             0.086636
C             2.800000            -7.274613             0.006572
H             0.850000            -8.227241             0.006034
C             3.500000            -8.487049             0.026002
C             4.900000            -8.487049             0.044696
H             2.950000            -9.439677             0.067516
C             5.600000            -9.699485             0.026149
C             7.000000            -9.699485             0.069618
H             5.050000           -10.652112             0.055555
H             7.550000           -10.652112             0.004300
