74
isomero_9_16
C             0.700000             1.212436             0.077783
C            -0.700000             1.212436             0.003001
C            -1.400000             0.000000             0.068038
C            -0.700000            -1.212436             0.089274
B             0.700000            -1.212436             0.037102
C             1.400000            -0.000000             0.062362
H             1.250000             2.165064             0.069267
H            -1.250000             2.165064             0.078498
C             2.800000             0.000000             0.063241
N             1.400000            -2.424871             0.069029
C             2.800000            -2.424871             0.080262
C             3.500000            -1.212436             0.037579
H             3.350000             0.952628             0.004787
C             4.900000            -1.212436             0.010300
C             3.500000            -3.637307             0.054050
C             4.900000            -3.637307             0.084933
C             5.600000            -2.424871             0.053247
H             5.450000            -0.259808             0.090861
C             7.000000            -2.424871             0.008966
C             5.600000            -4.849742             0.086395
C             7.000000            -4.849742             0.085745
C             7.700000            -3.637307             0.088290
H             7.550000            -1.472243             0.007436
C             9.100000            -3.637307             0.034216
C             7.700000            -6.062178             0.022821
C             9.100000            -6.062178             0.084441
C             9.800000            -4.849742             0.013410
H             9.650000            -2.684679             0.088130
C            11.200000            -4.849742             0.019367
C             9.800000            -7.274613             0.084662
C            11.200000            -7.274613             0.020798
C            11.900000            -6.062178             0.067054
H            11.750000            -3.897114             0.021645
H            11.750000            -8.227241             0.006475
H            13.000000            -6.062178             0.042913
C            -2.800000             0.000000             0.030308
C            -3.500000            -1.212436             0.058556
C            -2.800000            -2.424871             0.024579
C            -1.400000            -2.424871             0.074005
H            -3.350000             0.952628             0.022302
C            -0.700000            -3.637307             0.000042
C             0.700000            -3.637307             0.000293
C             1.400000            -4.849742             0.092570
C             2.800000            -4.849742             0.003969
C             3.500000            -6.062178             0.053707
C             4.900000            -6.062178             0.019161
C             5.600000            -7.274613             0.016365
C             7.000000            -7.274613             0.069724
C             7.700000            -8.487049             0.066872
C             9.100000            -8.487049             0.078439
H             9.650000            -9.439677             0.052205
C            -4.900000            -1.212436             0.079582
C            -5.600000            -2.424871             0.057807
C            -4.900000            -3.637307             0.051532
C            -3.500000            -3.637307             0.038888
H            -5.450000            -0.259808             0.058018
H            -6.700000            -2.424871             0.049293
H            -5.450000            -4.589935             0.055893
C            -2.800000            -4.849742             0.085461
C            -1.400000            -4.849742             0.069146
H            -3.350000            -5.802370             0.004533
C            -0.700000            -6.062178             0.090106
C             0.700000            -6.062178             0.025425
H            -1.250000            -7.014806             0.055570
C             1.400000            -7.274613             0.061324
C             2.800000            -7.274613             0.082017
H             0.850000            -8.227241             0.054852
C             3.500000            -8.487049             0.002627
C             4.900000            -8.487049             0.083752
H             2.950000            -9.439677             0.096075
C             5.600000            -9.699485             0.083116
C             7.000000            -9.699485             0.040224
H             5.050000           -10.652112             0.050319
H             7.550000           -10.652112             0.065265
