74
isomero_14_13
C             0.700000             1.212436             0.030338
C            -0.700000             1.212436             0.056684
C            -1.400000             0.000000             0.065353
C            -0.700000            -1.212436             0.066570
C             0.700000            -1.212436             0.050343
C             1.400000            -0.000000             0.003143
H             1.250000             2.165064             0.076335
H            -1.250000             2.165064             0.078684
C             2.800000             0.000000             0.082393
C             1.400000            -2.424871             0.038285
C             2.800000            -2.424871             0.035361
C             3.500000            -1.212436             0.033052
H             3.350000             0.952628             0.070245
C             4.900000            -1.212436             0.038389
C             3.500000            -3.637307             0.003114
C             4.900000            -3.637307             0.045664
B             5.600000            -2.424871             0.027942
H             5.450000            -0.259808             0.033628
N             7.000000            -2.424871             0.005218
C             5.600000            -4.849742             0.053999
C             7.000000            -4.849742             0.038094
C             7.700000            -3.637307             0.099844
H             7.550000            -1.472243             0.052962
C             9.100000            -3.637307             0.088644
C             7.700000            -6.062178             0.081557
C             9.100000            -6.062178             0.032469
C             9.800000            -4.849742             0.026616
H             9.650000            -2.684679             0.027781
C            11.200000            -4.849742             0.075444
C             9.800000            -7.274613             0.097893
C            11.200000            -7.274613             0.064246
C            11.900000            -6.062178             0.085224
H            11.750000            -3.897114             0.085524
H            11.750000            -8.227241             0.055886
H            13.000000            -6.062178             0.025309
C            -2.800000             0.000000             0.037663
C            -3.500000            -1.212436             0.054504
C            -2.800000            -2.424871             0.004482
C            -1.400000            -2.424871             0.033469
H            -3.350000             0.952628             0.080258
C            -0.700000            -3.637307             0.049356
C             0.700000            -3.637307             0.025880
C             1.400000            -4.849742             0.028468
C             2.800000            -4.849742             0.081692
C             3.500000            -6.062178             0.059134
C             4.900000            -6.062178             0.039387
C             5.600000            -7.274613             0.011091
C             7.000000            -7.274613             0.099649
C             7.700000            -8.487049             0.000530
C             9.100000            -8.487049             0.025152
H             9.650000            -9.439677             0.067035
C            -4.900000            -1.212436             0.062119
C            -5.600000            -2.424871             0.042198
C            -4.900000            -3.637307             0.063027
C            -3.500000            -3.637307             0.003934
H            -5.450000            -0.259808             0.044596
H            -6.700000            -2.424871             0.032819
H            -5.450000            -4.589935             0.079750
C            -2.800000            -4.849742             0.085560
C            -1.400000            -4.849742             0.092335
H            -3.350000            -5.802370             0.029594
C            -0.700000            -6.062178             0.090259
C             0.700000            -6.062178             0.009526
H            -1.250000            -7.014806             0.039499
C             1.400000            -7.274613             0.067800
C             2.800000            -7.274613             0.015342
H             0.850000            -8.227241             0.006526
C             3.500000            -8.487049             0.010637
C             4.900000            -8.487049             0.009646
H             2.950000            -9.439677             0.039589
C             5.600000            -9.699485             0.098517
C             7.000000            -9.699485             0.056895
H             5.050000           -10.652112             0.028227
H             7.550000           -10.652112             0.066862
