74
isomero_5_10
C             0.700000             1.212436             0.019770
C            -0.700000             1.212436             0.047859
B            -1.400000             0.000000             0.088889
N            -0.700000            -1.212436             0.055983
C             0.700000            -1.212436             0.024912
C             1.400000            -0.000000             0.026496
H             1.250000             2.165064             0.056338
H            -1.250000             2.165064             0.079316
C             2.800000             0.000000             0.002118
C             1.400000            -2.424871             0.073692
C             2.800000            -2.424871             0.040114
C             3.500000            -1.212436             0.071007
H             3.350000             0.952628             0.064110
C             4.900000            -1.212436             0.064779
C             3.500000            -3.637307             0.095873
C             4.900000            -3.637307             0.051567
C             5.600000            -2.424871             0.001285
H             5.450000            -0.259808             0.082859
C             7.000000            -2.424871             0.062654
C             5.600000            -4.849742             0.060839
C             7.000000            -4.849742             0.070600
C             7.700000            -3.637307             0.053506
H             7.550000            -1.472243             0.006114
C             9.100000            -3.637307             0.055562
C             7.700000            -6.062178             0.006690
C             9.100000            -6.062178             0.075199
C             9.800000            -4.849742             0.003539
H             9.650000            -2.684679             0.095862
C            11.200000            -4.849742             0.037381
C             9.800000            -7.274613             0.099679
C            11.200000            -7.274613             0.075873
C            11.900000            -6.062178             0.008335
H            11.750000            -3.897114             0.051274
H            11.750000            -8.227241             0.086694
H            13.000000            -6.062178             0.065934
C            -2.800000             0.000000             0.006885
C            -3.500000            -1.212436             0.092514
C            -2.800000            -2.424871             0.003936
C            -1.400000            -2.424871             0.099072
H            -3.350000             0.952628             0.069963
C            -0.700000            -3.637307             0.086198
C             0.700000            -3.637307             0.016836
C             1.400000            -4.849742             0.069051
C             2.800000            -4.849742             0.084848
C             3.500000            -6.062178             0.022952
C             4.900000            -6.062178             0.012490
C             5.600000            -7.274613             0.005118
C             7.000000            -7.274613             0.063952
C             7.700000            -8.487049             0.007821
C             9.100000            -8.487049             0.077070
H             9.650000            -9.439677             0.055713
C            -4.900000            -1.212436             0.009406
C            -5.600000            -2.424871             0.072846
C            -4.900000            -3.637307             0.042011
C            -3.500000            -3.637307             0.067085
H            -5.450000            -0.259808             0.080668
H            -6.700000            -2.424871             0.088978
H            -5.450000            -4.589935             0.066822
C            -2.800000            -4.849742             0.082896
C            -1.400000            -4.849742             0.096801
H            -3.350000            -5.802370             0.074957
C            -0.700000            -6.062178             0.058115
C             0.700000            -6.062178             0.095247
H            -1.250000            -7.014806             0.021483
C             1.400000            -7.274613             0.020599
C             2.800000            -7.274613             0.098537
H             0.850000            -8.227241             0.051645
C             3.500000            -8.487049             0.023819
C             4.900000            -8.487049             0.038622
H             2.950000            -9.439677             0.021283
C             5.600000            -9.699485             0.029839
C             7.000000            -9.699485             0.068805
H             5.050000           -10.652112             0.062262
H             7.550000           -10.652112             0.010355
