74
isomero_31_22
C             0.700000             1.212436             0.003830
C            -0.700000             1.212436             0.006064
C            -1.400000             0.000000             0.073966
C            -0.700000            -1.212436             0.002182
C             0.700000            -1.212436             0.064911
C             1.400000            -0.000000             0.088805
H             1.250000             2.165064             0.089980
H            -1.250000             2.165064             0.029408
C             2.800000             0.000000             0.081279
C             1.400000            -2.424871             0.056749
C             2.800000            -2.424871             0.093305
C             3.500000            -1.212436             0.079851
H             3.350000             0.952628             0.027667
C             4.900000            -1.212436             0.099844
C             3.500000            -3.637307             0.072677
N             4.900000            -3.637307             0.028661
C             5.600000            -2.424871             0.059155
H             5.450000            -0.259808             0.074911
C             7.000000            -2.424871             0.045024
B             5.600000            -4.849742             0.004110
C             7.000000            -4.849742             0.095569
C             7.700000            -3.637307             0.048311
H             7.550000            -1.472243             0.008320
C             9.100000            -3.637307             0.005321
C             7.700000            -6.062178             0.063088
C             9.100000            -6.062178             0.030487
C             9.800000            -4.849742             0.074023
H             9.650000            -2.684679             0.056293
C            11.200000            -4.849742             0.071247
C             9.800000            -7.274613             0.064566
C            11.200000            -7.274613             0.030685
C            11.900000            -6.062178             0.054358
H            11.750000            -3.897114             0.079751
H            11.750000            -8.227241             0.067807
H            13.000000            -6.062178             0.097390
C            -2.800000             0.000000             0.066024
C            -3.500000            -1.212436             0.024655
C            -2.800000            -2.424871             0.045080
C            -1.400000            -2.424871             0.025194
H            -3.350000             0.952628             0.076050
C            -0.700000            -3.637307             0.052221
C             0.700000            -3.637307             0.010861
C             1.400000            -4.849742             0.068630
C             2.800000            -4.849742             0.066256
C             3.500000            -6.062178             0.090574
C             4.900000            -6.062178             0.048981
C             5.600000            -7.274613             0.046334
C             7.000000            -7.274613             0.066342
C             7.700000            -8.487049             0.093751
C             9.100000            -8.487049             0.032687
H             9.650000            -9.439677             0.002321
C            -4.900000            -1.212436             0.077308
C            -5.600000            -2.424871             0.008487
C            -4.900000            -3.637307             0.053565
C            -3.500000            -3.637307             0.079836
H            -5.450000            -0.259808             0.054752
H            -6.700000            -2.424871             0.080282
H            -5.450000            -4.589935             0.031558
C            -2.800000            -4.849742             0.039650
C            -1.400000            -4.849742             0.047066
H            -3.350000            -5.802370             0.026403
C            -0.700000            -6.062178             0.077734
C             0.700000            -6.062178             0.049409
H            -1.250000            -7.014806             0.062691
C             1.400000            -7.274613             0.051224
C             2.800000            -7.274613             0.084448
H             0.850000            -8.227241             0.080100
C             3.500000            -8.487049             0.049567
C             4.900000            -8.487049             0.086714
H             2.950000            -9.439677             0.049711
C             5.600000            -9.699485             0.096180
C             7.000000            -9.699485             0.007283
H             5.050000           -10.652112             0.037743
H             7.550000           -10.652112             0.059092
