74
isomero_7_14
C             0.700000             1.212436             0.049290
C            -0.700000             1.212436             0.058043
C            -1.400000             0.000000             0.094895
C            -0.700000            -1.212436             0.063165
C             0.700000            -1.212436             0.047253
C             1.400000            -0.000000             0.012159
H             1.250000             2.165064             0.027971
H            -1.250000             2.165064             0.076921
C             2.800000             0.000000             0.075080
C             1.400000            -2.424871             0.001808
C             2.800000            -2.424871             0.084846
C             3.500000            -1.212436             0.090235
H             3.350000             0.952628             0.067604
B             4.900000            -1.212436             0.004060
C             3.500000            -3.637307             0.049542
C             4.900000            -3.637307             0.068658
N             5.600000            -2.424871             0.003687
H             5.450000            -0.259808             0.025057
C             7.000000            -2.424871             0.031644
C             5.600000            -4.849742             0.016681
C             7.000000            -4.849742             0.045963
C             7.700000            -3.637307             0.091784
H             7.550000            -1.472243             0.004902
C             9.100000            -3.637307             0.028193
C             7.700000            -6.062178             0.081513
C             9.100000            -6.062178             0.089311
C             9.800000            -4.849742             0.079028
H             9.650000            -2.684679             0.002264
C            11.200000            -4.849742             0.007923
C             9.800000            -7.274613             0.092087
C            11.200000            -7.274613             0.051414
C            11.900000            -6.062178             0.004247
H            11.750000            -3.897114             0.079063
H            11.750000            -8.227241             0.072811
H            13.000000            -6.062178             0.009540
C            -2.800000             0.000000             0.078949
C            -3.500000            -1.212436             0.070716
C            -2.800000            -2.424871             0.038981
C            -1.400000            -2.424871             0.090614
H            -3.350000             0.952628             0.012735
C            -0.700000            -3.637307             0.046034
C             0.700000            -3.637307             0.052728
C             1.400000            -4.849742             0.061405
C             2.800000            -4.849742             0.005178
C             3.500000            -6.062178             0.002153
C             4.900000            -6.062178             0.011148
C             5.600000            -7.274613             0.055530
C             7.000000            -7.274613             0.060507
C             7.700000            -8.487049             0.078404
C             9.100000            -8.487049             0.095476
H             9.650000            -9.439677             0.019432
C            -4.900000            -1.212436             0.046668
C            -5.600000            -2.424871             0.091112
C            -4.900000            -3.637307             0.041596
C            -3.500000            -3.637307             0.029801
H            -5.450000            -0.259808             0.025736
H            -6.700000            -2.424871             0.083190
H            -5.450000            -4.589935             0.069454
C            -2.800000            -4.849742             0.000618
C            -1.400000            -4.849742             0.063715
H            -3.350000            -5.802370             0.081501
C            -0.700000            -6.062178             0.066132
C             0.700000            -6.062178             0.033493
H            -1.250000            -7.014806             0.095916
C             1.400000            -7.274613             0.053535
C             2.800000            -7.274613             0.056664
H             0.850000            -8.227241             0.011586
C             3.500000            -8.487049             0.050892
C             4.900000            -8.487049             0.081497
H             2.950000            -9.439677             0.063227
C             5.600000            -9.699485             0.013009
C             7.000000            -9.699485             0.053324
H             5.050000           -10.652112             0.095108
H             7.550000           -10.652112             0.007799
