74
isomero_5_6
C             0.700000             1.212436             0.023289
C            -0.700000             1.212436             0.033519
B            -1.400000             0.000000             0.013903
C            -0.700000            -1.212436             0.033652
C             0.700000            -1.212436             0.056615
C             1.400000            -0.000000             0.046099
H             1.250000             2.165064             0.089155
H            -1.250000             2.165064             0.011740
C             2.800000             0.000000             0.010618
C             1.400000            -2.424871             0.039189
C             2.800000            -2.424871             0.069674
C             3.500000            -1.212436             0.088853
H             3.350000             0.952628             0.004620
C             4.900000            -1.212436             0.029218
C             3.500000            -3.637307             0.095375
C             4.900000            -3.637307             0.076097
C             5.600000            -2.424871             0.005577
H             5.450000            -0.259808             0.002842
C             7.000000            -2.424871             0.092707
C             5.600000            -4.849742             0.037059
C             7.000000            -4.849742             0.001583
C             7.700000            -3.637307             0.050364
H             7.550000            -1.472243             0.094915
C             9.100000            -3.637307             0.093244
C             7.700000            -6.062178             0.005371
C             9.100000            -6.062178             0.091455
C             9.800000            -4.849742             0.050375
H             9.650000            -2.684679             0.019154
C            11.200000            -4.849742             0.061883
C             9.800000            -7.274613             0.087532
C            11.200000            -7.274613             0.041988
C            11.900000            -6.062178             0.093043
H            11.750000            -3.897114             0.053036
H            11.750000            -8.227241             0.084440
H            13.000000            -6.062178             0.076051
N            -2.800000             0.000000             0.064895
C            -3.500000            -1.212436             0.092929
C            -2.800000            -2.424871             0.069858
C            -1.400000            -2.424871             0.022831
H            -3.350000             0.952628             0.070341
C            -0.700000            -3.637307             0.023803
C             0.700000            -3.637307             0.054034
C             1.400000            -4.849742             0.037726
C             2.800000            -4.849742             0.063288
C             3.500000            -6.062178             0.098760
C             4.900000            -6.062178             0.077693
C             5.600000            -7.274613             0.071688
C             7.000000            -7.274613             0.084262
C             7.700000            -8.487049             0.026191
C             9.100000            -8.487049             0.046128
H             9.650000            -9.439677             0.036292
C            -4.900000            -1.212436             0.061699
C            -5.600000            -2.424871             0.030945
C            -4.900000            -3.637307             0.063266
C            -3.500000            -3.637307             0.077905
H            -5.450000            -0.259808             0.088804
H            -6.700000            -2.424871             0.067884
H            -5.450000            -4.589935             0.021440
C            -2.800000            -4.849742             0.019674
C            -1.400000            -4.849742             0.041061
H            -3.350000            -5.802370             0.076698
C            -0.700000            -6.062178             0.078670
C             0.700000            -6.062178             0.059960
H            -1.250000            -7.014806             0.016006
C             1.400000            -7.274613             0.018761
C             2.800000            -7.274613             0.085913
H             0.850000            -8.227241             0.051530
C             3.500000            -8.487049             0.046899
C             4.900000            -8.487049             0.000528
H             2.950000            -9.439677             0.075760
C             5.600000            -9.699485             0.051368
C             7.000000            -9.699485             0.044190
H             5.050000           -10.652112             0.097445
H             7.550000           -10.652112             0.035033
