74
isomero_29_37
C             0.700000             1.212436             0.061311
C            -0.700000             1.212436             0.041453
C            -1.400000             0.000000             0.092138
C            -0.700000            -1.212436             0.032108
C             0.700000            -1.212436             0.075101
C             1.400000            -0.000000             0.020540
H             1.250000             2.165064             0.030366
H            -1.250000             2.165064             0.026866
C             2.800000             0.000000             0.069314
C             1.400000            -2.424871             0.016685
C             2.800000            -2.424871             0.053156
C             3.500000            -1.212436             0.020131
H             3.350000             0.952628             0.015717
C             4.900000            -1.212436             0.075695
C             3.500000            -3.637307             0.091474
C             4.900000            -3.637307             0.021976
C             5.600000            -2.424871             0.016870
H             5.450000            -0.259808             0.079918
C             7.000000            -2.424871             0.061140
C             5.600000            -4.849742             0.077349
C             7.000000            -4.849742             0.055390
C             7.700000            -3.637307             0.029362
H             7.550000            -1.472243             0.059060
C             9.100000            -3.637307             0.016371
C             7.700000            -6.062178             0.037143
N             9.100000            -6.062178             0.090198
B             9.800000            -4.849742             0.041045
H             9.650000            -2.684679             0.083011
C            11.200000            -4.849742             0.097344
C             9.800000            -7.274613             0.056105
C            11.200000            -7.274613             0.068384
C            11.900000            -6.062178             0.054578
H            11.750000            -3.897114             0.074909
H            11.750000            -8.227241             0.064335
H            13.000000            -6.062178             0.014590
C            -2.800000             0.000000             0.083802
C            -3.500000            -1.212436             0.013013
C            -2.800000            -2.424871             0.068656
C            -1.400000            -2.424871             0.094031
H            -3.350000             0.952628             0.045536
C            -0.700000            -3.637307             0.011138
C             0.700000            -3.637307             0.006161
C             1.400000            -4.849742             0.077619
C             2.800000            -4.849742             0.000271
C             3.500000            -6.062178             0.060677
C             4.900000            -6.062178             0.035690
C             5.600000            -7.274613             0.039459
C             7.000000            -7.274613             0.039659
C             7.700000            -8.487049             0.041935
C             9.100000            -8.487049             0.082704
H             9.650000            -9.439677             0.072606
C            -4.900000            -1.212436             0.090523
C            -5.600000            -2.424871             0.078263
C            -4.900000            -3.637307             0.032691
C            -3.500000            -3.637307             0.020166
H            -5.450000            -0.259808             0.065501
H            -6.700000            -2.424871             0.010891
H            -5.450000            -4.589935             0.088596
C            -2.800000            -4.849742             0.058731
C            -1.400000            -4.849742             0.078129
H            -3.350000            -5.802370             0.059663
C            -0.700000            -6.062178             0.017449
C             0.700000            -6.062178             0.008046
H            -1.250000            -7.014806             0.082875
C             1.400000            -7.274613             0.015347
C             2.800000            -7.274613             0.006149
H             0.850000            -8.227241             0.058988
C             3.500000            -8.487049             0.046556
C             4.900000            -8.487049             0.046237
H             2.950000            -9.439677             0.090934
C             5.600000            -9.699485             0.015944
C             7.000000            -9.699485             0.079398
H             5.050000           -10.652112             0.067273
H             7.550000           -10.652112             0.091900
