74
isomero_3_8
C             0.700000             1.212436             0.016430
C            -0.700000             1.212436             0.075120
C            -1.400000             0.000000             0.006056
C            -0.700000            -1.212436             0.009134
C             0.700000            -1.212436             0.093991
C             1.400000            -0.000000             0.058367
H             1.250000             2.165064             0.085798
H            -1.250000             2.165064             0.038030
B             2.800000             0.000000             0.036037
C             1.400000            -2.424871             0.029208
C             2.800000            -2.424871             0.008562
N             3.500000            -1.212436             0.064559
H             3.350000             0.952628             0.093320
C             4.900000            -1.212436             0.054440
C             3.500000            -3.637307             0.066997
C             4.900000            -3.637307             0.092511
C             5.600000            -2.424871             0.057467
H             5.450000            -0.259808             0.091280
C             7.000000            -2.424871             0.092754
C             5.600000            -4.849742             0.028772
C             7.000000            -4.849742             0.094069
C             7.700000            -3.637307             0.081457
H             7.550000            -1.472243             0.052520
C             9.100000            -3.637307             0.081958
C             7.700000            -6.062178             0.069662
C             9.100000            -6.062178             0.087450
C             9.800000            -4.849742             0.056771
H             9.650000            -2.684679             0.067843
C            11.200000            -4.849742             0.002882
C             9.800000            -7.274613             0.075942
C            11.200000            -7.274613             0.017542
C            11.900000            -6.062178             0.055988
H            11.750000            -3.897114             0.053217
H            11.750000            -8.227241             0.030401
H            13.000000            -6.062178             0.070007
C            -2.800000             0.000000             0.095207
C            -3.500000            -1.212436             0.054478
C            -2.800000            -2.424871             0.025909
C            -1.400000            -2.424871             0.002109
H            -3.350000             0.952628             0.075742
C            -0.700000            -3.637307             0.000787
C             0.700000            -3.637307             0.026549
C             1.400000            -4.849742             0.055005
C             2.800000            -4.849742             0.013854
C             3.500000            -6.062178             0.044605
C             4.900000            -6.062178             0.014184
C             5.600000            -7.274613             0.087563
C             7.000000            -7.274613             0.055012
C             7.700000            -8.487049             0.058455
C             9.100000            -8.487049             0.053080
H             9.650000            -9.439677             0.085960
C            -4.900000            -1.212436             0.050718
C            -5.600000            -2.424871             0.073627
C            -4.900000            -3.637307             0.085749
C            -3.500000            -3.637307             0.011428
H            -5.450000            -0.259808             0.043326
H            -6.700000            -2.424871             0.028477
H            -5.450000            -4.589935             0.086857
C            -2.800000            -4.849742             0.006696
C            -1.400000            -4.849742             0.061140
H            -3.350000            -5.802370             0.034433
C            -0.700000            -6.062178             0.026967
C             0.700000            -6.062178             0.057013
H            -1.250000            -7.014806             0.013218
C             1.400000            -7.274613             0.013497
C             2.800000            -7.274613             0.093503
H             0.850000            -8.227241             0.033564
C             3.500000            -8.487049             0.019762
C             4.900000            -8.487049             0.007157
H             2.950000            -9.439677             0.091178
C             5.600000            -9.699485             0.095694
C             7.000000            -9.699485             0.035932
H             5.050000           -10.652112             0.009609
H             7.550000           -10.652112             0.089354
