74
isomero_17_25
C             0.700000             1.212436             0.079395
C            -0.700000             1.212436             0.039088
C            -1.400000             0.000000             0.050184
C            -0.700000            -1.212436             0.091334
C             0.700000            -1.212436             0.040549
C             1.400000            -0.000000             0.063968
H             1.250000             2.165064             0.040063
H            -1.250000             2.165064             0.017964
C             2.800000             0.000000             0.086637
C             1.400000            -2.424871             0.088920
C             2.800000            -2.424871             0.050909
C             3.500000            -1.212436             0.022834
H             3.350000             0.952628             0.092746
C             4.900000            -1.212436             0.020073
C             3.500000            -3.637307             0.067162
C             4.900000            -3.637307             0.047032
C             5.600000            -2.424871             0.084251
H             5.450000            -0.259808             0.002546
C             7.000000            -2.424871             0.045139
C             5.600000            -4.849742             0.041890
C             7.000000            -4.849742             0.004693
C             7.700000            -3.637307             0.092597
H             7.550000            -1.472243             0.096323
C             9.100000            -3.637307             0.023661
C             7.700000            -6.062178             0.037233
C             9.100000            -6.062178             0.065951
C             9.800000            -4.849742             0.030584
H             9.650000            -2.684679             0.093143
C            11.200000            -4.849742             0.018792
C             9.800000            -7.274613             0.071240
C            11.200000            -7.274613             0.010381
C            11.900000            -6.062178             0.031232
H            11.750000            -3.897114             0.078986
H            11.750000            -8.227241             0.014447
H            13.000000            -6.062178             0.031461
C            -2.800000             0.000000             0.076636
C            -3.500000            -1.212436             0.029961
C            -2.800000            -2.424871             0.063747
B            -1.400000            -2.424871             0.072679
H            -3.350000             0.952628             0.071053
N            -0.700000            -3.637307             0.066499
C             0.700000            -3.637307             0.034448
C             1.400000            -4.849742             0.074739
C             2.800000            -4.849742             0.077858
C             3.500000            -6.062178             0.067714
C             4.900000            -6.062178             0.018507
C             5.600000            -7.274613             0.030505
C             7.000000            -7.274613             0.031398
C             7.700000            -8.487049             0.099826
C             9.100000            -8.487049             0.078579
H             9.650000            -9.439677             0.070046
C            -4.900000            -1.212436             0.083418
C            -5.600000            -2.424871             0.036565
C            -4.900000            -3.637307             0.082969
C            -3.500000            -3.637307             0.076668
H            -5.450000            -0.259808             0.064725
H            -6.700000            -2.424871             0.003090
H            -5.450000            -4.589935             0.099954
C            -2.800000            -4.849742             0.077682
C            -1.400000            -4.849742             0.032746
H            -3.350000            -5.802370             0.004278
C            -0.700000            -6.062178             0.046198
C             0.700000            -6.062178             0.057286
H            -1.250000            -7.014806             0.052721
C             1.400000            -7.274613             0.025529
C             2.800000            -7.274613             0.080967
H             0.850000            -8.227241             0.075494
C             3.500000            -8.487049             0.070834
C             4.900000            -8.487049             0.082103
H             2.950000            -9.439677             0.033306
C             5.600000            -9.699485             0.048856
C             7.000000            -9.699485             0.098101
H             5.050000           -10.652112             0.094499
H             7.550000           -10.652112             0.015252
