74
isomero_2_5
C             0.700000             1.212436             0.052821
B            -0.700000             1.212436             0.000744
N            -1.400000             0.000000             0.075701
C            -0.700000            -1.212436             0.085060
C             0.700000            -1.212436             0.022509
C             1.400000            -0.000000             0.044980
H             1.250000             2.165064             0.088746
H            -1.250000             2.165064             0.009254
C             2.800000             0.000000             0.049637
C             1.400000            -2.424871             0.022864
C             2.800000            -2.424871             0.011074
C             3.500000            -1.212436             0.045024
H             3.350000             0.952628             0.003187
C             4.900000            -1.212436             0.023369
C             3.500000            -3.637307             0.049141
C             4.900000            -3.637307             0.034421
C             5.600000            -2.424871             0.059075
H             5.450000            -0.259808             0.023224
C             7.000000            -2.424871             0.089008
C             5.600000            -4.849742             0.056748
C             7.000000            -4.849742             0.083034
C             7.700000            -3.637307             0.016786
H             7.550000            -1.472243             0.031399
C             9.100000            -3.637307             0.057657
C             7.700000            -6.062178             0.012167
C             9.100000            -6.062178             0.066834
C             9.800000            -4.849742             0.018055
H             9.650000            -2.684679             0.017795
C            11.200000            -4.849742             0.081021
C             9.800000            -7.274613             0.005748
C            11.200000            -7.274613             0.058326
C            11.900000            -6.062178             0.070418
H            11.750000            -3.897114             0.090410
H            11.750000            -8.227241             0.028948
H            13.000000            -6.062178             0.085991
C            -2.800000             0.000000             0.040994
C            -3.500000            -1.212436             0.099799
C            -2.800000            -2.424871             0.061637
C            -1.400000            -2.424871             0.096014
H            -3.350000             0.952628             0.003879
C            -0.700000            -3.637307             0.018029
C             0.700000            -3.637307             0.011107
C             1.400000            -4.849742             0.018626
C             2.800000            -4.849742             0.087751
C             3.500000            -6.062178             0.061517
C             4.900000            -6.062178             0.075775
C             5.600000            -7.274613             0.054492
C             7.000000            -7.274613             0.019659
C             7.700000            -8.487049             0.076064
C             9.100000            -8.487049             0.017225
H             9.650000            -9.439677             0.086156
C            -4.900000            -1.212436             0.083152
C            -5.600000            -2.424871             0.074905
C            -4.900000            -3.637307             0.072121
C            -3.500000            -3.637307             0.052305
H            -5.450000            -0.259808             0.091221
H            -6.700000            -2.424871             0.028089
H            -5.450000            -4.589935             0.011074
C            -2.800000            -4.849742             0.035443
C            -1.400000            -4.849742             0.011781
H            -3.350000            -5.802370             0.060593
C            -0.700000            -6.062178             0.035988
C             0.700000            -6.062178             0.057513
H            -1.250000            -7.014806             0.061937
C             1.400000            -7.274613             0.072086
C             2.800000            -7.274613             0.055723
H             0.850000            -8.227241             0.044951
C             3.500000            -8.487049             0.034553
C             4.900000            -8.487049             0.006025
H             2.950000            -9.439677             0.044404
C             5.600000            -9.699485             0.022088
C             7.000000            -9.699485             0.072476
H             5.050000           -10.652112             0.074288
H             7.550000           -10.652112             0.026097
