74
isomero_20_21
C             0.700000             1.212436             0.085302
C            -0.700000             1.212436             0.085288
C            -1.400000             0.000000             0.057430
C            -0.700000            -1.212436             0.031696
C             0.700000            -1.212436             0.038675
C             1.400000            -0.000000             0.076481
H             1.250000             2.165064             0.068043
H            -1.250000             2.165064             0.012530
C             2.800000             0.000000             0.061984
C             1.400000            -2.424871             0.068767
C             2.800000            -2.424871             0.076028
C             3.500000            -1.212436             0.022713
H             3.350000             0.952628             0.022429
C             4.900000            -1.212436             0.001502
C             3.500000            -3.637307             0.058533
C             4.900000            -3.637307             0.073277
C             5.600000            -2.424871             0.086456
H             5.450000            -0.259808             0.007884
C             7.000000            -2.424871             0.043260
C             5.600000            -4.849742             0.080479
C             7.000000            -4.849742             0.050957
N             7.700000            -3.637307             0.040499
H             7.550000            -1.472243             0.046569
B             9.100000            -3.637307             0.036857
C             7.700000            -6.062178             0.056203
C             9.100000            -6.062178             0.055235
C             9.800000            -4.849742             0.018262
H             9.650000            -2.684679             0.067291
C            11.200000            -4.849742             0.064239
C             9.800000            -7.274613             0.081630
C            11.200000            -7.274613             0.026497
C            11.900000            -6.062178             0.079917
H            11.750000            -3.897114             0.031144
H            11.750000            -8.227241             0.071528
H            13.000000            -6.062178             0.091326
C            -2.800000             0.000000             0.070356
C            -3.500000            -1.212436             0.008689
C            -2.800000            -2.424871             0.050784
C            -1.400000            -2.424871             0.077618
H            -3.350000             0.952628             0.050325
C            -0.700000            -3.637307             0.005853
C             0.700000            -3.637307             0.066800
C             1.400000            -4.849742             0.040968
C             2.800000            -4.849742             0.000105
C             3.500000            -6.062178             0.067428
C             4.900000            -6.062178             0.046138
C             5.600000            -7.274613             0.095766
C             7.000000            -7.274613             0.038658
C             7.700000            -8.487049             0.026018
C             9.100000            -8.487049             0.020808
H             9.650000            -9.439677             0.063465
C            -4.900000            -1.212436             0.035434
C            -5.600000            -2.424871             0.013537
C            -4.900000            -3.637307             0.021673
C            -3.500000            -3.637307             0.060609
H            -5.450000            -0.259808             0.044380
H            -6.700000            -2.424871             0.048043
H            -5.450000            -4.589935             0.088700
C            -2.800000            -4.849742             0.001260
C            -1.400000            -4.849742             0.057849
H            -3.350000            -5.802370             0.006644
C            -0.700000            -6.062178             0.029245
C             0.700000            -6.062178             0.048701
H            -1.250000            -7.014806             0.017622
C             1.400000            -7.274613             0.049605
C             2.800000            -7.274613             0.062185
H             0.850000            -8.227241             0.073198
C             3.500000            -8.487049             0.098786
C             4.900000            -8.487049             0.040204
H             2.950000            -9.439677             0.088456
C             5.600000            -9.699485             0.019036
C             7.000000            -9.699485             0.066680
H             5.050000           -10.652112             0.048939
H             7.550000           -10.652112             0.046988
