74
isomero_17_18
C             0.700000             1.212436             0.023911
C            -0.700000             1.212436             0.011163
C            -1.400000             0.000000             0.023079
C            -0.700000            -1.212436             0.081744
C             0.700000            -1.212436             0.019699
C             1.400000            -0.000000             0.087828
H             1.250000             2.165064             0.076035
H            -1.250000             2.165064             0.087532
C             2.800000             0.000000             0.002696
C             1.400000            -2.424871             0.023735
C             2.800000            -2.424871             0.041012
C             3.500000            -1.212436             0.041155
H             3.350000             0.952628             0.023758
C             4.900000            -1.212436             0.087596
C             3.500000            -3.637307             0.008909
C             4.900000            -3.637307             0.066584
C             5.600000            -2.424871             0.024757
H             5.450000            -0.259808             0.011229
C             7.000000            -2.424871             0.060288
C             5.600000            -4.849742             0.096914
C             7.000000            -4.849742             0.074581
C             7.700000            -3.637307             0.011213
H             7.550000            -1.472243             0.017565
C             9.100000            -3.637307             0.032350
C             7.700000            -6.062178             0.008687
C             9.100000            -6.062178             0.076513
C             9.800000            -4.849742             0.051528
H             9.650000            -2.684679             0.016727
C            11.200000            -4.849742             0.058067
C             9.800000            -7.274613             0.021366
C            11.200000            -7.274613             0.015562
C            11.900000            -6.062178             0.059925
H            11.750000            -3.897114             0.029151
H            11.750000            -8.227241             0.048478
H            13.000000            -6.062178             0.020076
C            -2.800000             0.000000             0.009903
C            -3.500000            -1.212436             0.030640
N            -2.800000            -2.424871             0.020270
B            -1.400000            -2.424871             0.084697
H            -3.350000             0.952628             0.069810
C            -0.700000            -3.637307             0.034719
C             0.700000            -3.637307             0.066061
C             1.400000            -4.849742             0.038438
C             2.800000            -4.849742             0.054465
C             3.500000            -6.062178             0.014027
C             4.900000            -6.062178             0.066315
C             5.600000            -7.274613             0.047009
C             7.000000            -7.274613             0.043848
C             7.700000            -8.487049             0.077934
C             9.100000            -8.487049             0.010926
H             9.650000            -9.439677             0.069475
C            -4.900000            -1.212436             0.006060
C            -5.600000            -2.424871             0.058173
C            -4.900000            -3.637307             0.037417
C            -3.500000            -3.637307             0.035910
H            -5.450000            -0.259808             0.071743
H            -6.700000            -2.424871             0.069790
H            -5.450000            -4.589935             0.079496
C            -2.800000            -4.849742             0.058494
C            -1.400000            -4.849742             0.045504
H            -3.350000            -5.802370             0.018888
C            -0.700000            -6.062178             0.016563
C             0.700000            -6.062178             0.087743
H            -1.250000            -7.014806             0.042795
C             1.400000            -7.274613             0.041207
C             2.800000            -7.274613             0.050038
H             0.850000            -8.227241             0.055481
C             3.500000            -8.487049             0.042619
C             4.900000            -8.487049             0.079368
H             2.950000            -9.439677             0.041821
C             5.600000            -9.699485             0.021929
C             7.000000            -9.699485             0.065101
H             5.050000           -10.652112             0.093082
H             7.550000           -10.652112             0.020015
