74
isomero_21_13
C             0.700000             1.212436             0.074377
C            -0.700000             1.212436             0.061926
C            -1.400000             0.000000             0.024807
C            -0.700000            -1.212436             0.014483
C             0.700000            -1.212436             0.048561
C             1.400000            -0.000000             0.038478
H             1.250000             2.165064             0.004764
H            -1.250000             2.165064             0.003320
C             2.800000             0.000000             0.063118
C             1.400000            -2.424871             0.030944
C             2.800000            -2.424871             0.018770
C             3.500000            -1.212436             0.076585
H             3.350000             0.952628             0.061078
C             4.900000            -1.212436             0.071997
C             3.500000            -3.637307             0.059407
C             4.900000            -3.637307             0.072280
C             5.600000            -2.424871             0.090879
H             5.450000            -0.259808             0.012708
N             7.000000            -2.424871             0.076002
C             5.600000            -4.849742             0.008864
C             7.000000            -4.849742             0.068271
B             7.700000            -3.637307             0.090911
H             7.550000            -1.472243             0.015418
C             9.100000            -3.637307             0.093923
C             7.700000            -6.062178             0.094151
C             9.100000            -6.062178             0.043648
C             9.800000            -4.849742             0.024590
H             9.650000            -2.684679             0.007146
C            11.200000            -4.849742             0.085374
C             9.800000            -7.274613             0.059474
C            11.200000            -7.274613             0.057580
C            11.900000            -6.062178             0.035199
H            11.750000            -3.897114             0.086463
H            11.750000            -8.227241             0.006774
H            13.000000            -6.062178             0.020106
C            -2.800000             0.000000             0.090828
C            -3.500000            -1.212436             0.019261
C            -2.800000            -2.424871             0.013114
C            -1.400000            -2.424871             0.077505
H            -3.350000             0.952628             0.071366
C            -0.700000            -3.637307             0.046905
C             0.700000            -3.637307             0.035722
C             1.400000            -4.849742             0.013509
C             2.800000            -4.849742             0.011212
C             3.500000            -6.062178             0.048263
C             4.900000            -6.062178             0.092590
C             5.600000            -7.274613             0.022615
C             7.000000            -7.274613             0.008947
C             7.700000            -8.487049             0.050707
C             9.100000            -8.487049             0.030097
H             9.650000            -9.439677             0.077496
C            -4.900000            -1.212436             0.000737
C            -5.600000            -2.424871             0.025114
C            -4.900000            -3.637307             0.066521
C            -3.500000            -3.637307             0.019606
H            -5.450000            -0.259808             0.099362
H            -6.700000            -2.424871             0.075618
H            -5.450000            -4.589935             0.032847
C            -2.800000            -4.849742             0.054122
C            -1.400000            -4.849742             0.047835
H            -3.350000            -5.802370             0.021677
C            -0.700000            -6.062178             0.079350
C             0.700000            -6.062178             0.063821
H            -1.250000            -7.014806             0.076457
C             1.400000            -7.274613             0.073981
C             2.800000            -7.274613             0.012716
H             0.850000            -8.227241             0.068403
C             3.500000            -8.487049             0.074728
C             4.900000            -8.487049             0.035808
H             2.950000            -9.439677             0.019062
C             5.600000            -9.699485             0.057439
C             7.000000            -9.699485             0.026235
H             5.050000           -10.652112             0.039173
H             7.550000           -10.652112             0.032104
