74
isomero_17_10
C             0.700000             1.212436             0.050629
C            -0.700000             1.212436             0.042233
C            -1.400000             0.000000             0.065497
N            -0.700000            -1.212436             0.072088
C             0.700000            -1.212436             0.066603
C             1.400000            -0.000000             0.049363
H             1.250000             2.165064             0.009612
H            -1.250000             2.165064             0.081000
C             2.800000             0.000000             0.039544
C             1.400000            -2.424871             0.037210
C             2.800000            -2.424871             0.031483
C             3.500000            -1.212436             0.040990
H             3.350000             0.952628             0.051537
C             4.900000            -1.212436             0.028274
C             3.500000            -3.637307             0.047488
C             4.900000            -3.637307             0.002860
C             5.600000            -2.424871             0.013878
H             5.450000            -0.259808             0.011884
C             7.000000            -2.424871             0.051100
C             5.600000            -4.849742             0.093891
C             7.000000            -4.849742             0.035668
C             7.700000            -3.637307             0.094220
H             7.550000            -1.472243             0.030462
C             9.100000            -3.637307             0.022491
C             7.700000            -6.062178             0.010881
C             9.100000            -6.062178             0.060434
C             9.800000            -4.849742             0.055553
H             9.650000            -2.684679             0.060474
C            11.200000            -4.849742             0.079268
C             9.800000            -7.274613             0.002092
C            11.200000            -7.274613             0.098873
C            11.900000            -6.062178             0.008688
H            11.750000            -3.897114             0.090048
H            11.750000            -8.227241             0.023810
H            13.000000            -6.062178             0.080926
C            -2.800000             0.000000             0.061509
C            -3.500000            -1.212436             0.027921
C            -2.800000            -2.424871             0.065091
B            -1.400000            -2.424871             0.088688
H            -3.350000             0.952628             0.038087
C            -0.700000            -3.637307             0.086858
C             0.700000            -3.637307             0.091290
C             1.400000            -4.849742             0.091111
C             2.800000            -4.849742             0.088049
C             3.500000            -6.062178             0.021597
C             4.900000            -6.062178             0.001421
C             5.600000            -7.274613             0.009201
C             7.000000            -7.274613             0.071936
C             7.700000            -8.487049             0.030838
C             9.100000            -8.487049             0.021307
H             9.650000            -9.439677             0.011714
C            -4.900000            -1.212436             0.036330
C            -5.600000            -2.424871             0.033281
C            -4.900000            -3.637307             0.060879
C            -3.500000            -3.637307             0.001091
H            -5.450000            -0.259808             0.008853
H            -6.700000            -2.424871             0.055498
H            -5.450000            -4.589935             0.096815
C            -2.800000            -4.849742             0.076444
C            -1.400000            -4.849742             0.034855
H            -3.350000            -5.802370             0.091800
C            -0.700000            -6.062178             0.094703
C             0.700000            -6.062178             0.033232
H            -1.250000            -7.014806             0.025261
C             1.400000            -7.274613             0.044869
C             2.800000            -7.274613             0.074019
H             0.850000            -8.227241             0.009715
C             3.500000            -8.487049             0.078191
C             4.900000            -8.487049             0.027068
H             2.950000            -9.439677             0.012861
C             5.600000            -9.699485             0.094915
C             7.000000            -9.699485             0.081869
H             5.050000           -10.652112             0.012651
H             7.550000           -10.652112             0.073112
