74
isomero_36_43
C             0.700000             1.212436             0.058357
C            -0.700000             1.212436             0.051462
C            -1.400000             0.000000             0.035041
C            -0.700000            -1.212436             0.016900
C             0.700000            -1.212436             0.064726
C             1.400000            -0.000000             0.015084
H             1.250000             2.165064             0.013242
H            -1.250000             2.165064             0.010386
C             2.800000             0.000000             0.082062
C             1.400000            -2.424871             0.010695
C             2.800000            -2.424871             0.036038
C             3.500000            -1.212436             0.075781
H             3.350000             0.952628             0.086796
C             4.900000            -1.212436             0.007672
C             3.500000            -3.637307             0.056661
C             4.900000            -3.637307             0.034595
C             5.600000            -2.424871             0.017151
H             5.450000            -0.259808             0.082776
C             7.000000            -2.424871             0.059239
C             5.600000            -4.849742             0.081509
C             7.000000            -4.849742             0.034147
C             7.700000            -3.637307             0.090190
H             7.550000            -1.472243             0.011634
C             9.100000            -3.637307             0.059152
C             7.700000            -6.062178             0.064534
C             9.100000            -6.062178             0.006050
C             9.800000            -4.849742             0.081328
H             9.650000            -2.684679             0.095860
C            11.200000            -4.849742             0.075870
C             9.800000            -7.274613             0.049190
N            11.200000            -7.274613             0.059295
B            11.900000            -6.062178             0.037280
H            11.750000            -3.897114             0.014806
H            11.750000            -8.227241             0.029184
H            13.000000            -6.062178             0.063693
C            -2.800000             0.000000             0.044930
C            -3.500000            -1.212436             0.086688
C            -2.800000            -2.424871             0.069366
C            -1.400000            -2.424871             0.060378
H            -3.350000             0.952628             0.039058
C            -0.700000            -3.637307             0.047188
C             0.700000            -3.637307             0.028894
C             1.400000            -4.849742             0.097455
C             2.800000            -4.849742             0.008119
C             3.500000            -6.062178             0.042800
C             4.900000            -6.062178             0.008156
C             5.600000            -7.274613             0.085281
C             7.000000            -7.274613             0.088390
C             7.700000            -8.487049             0.022625
C             9.100000            -8.487049             0.047886
H             9.650000            -9.439677             0.063863
C            -4.900000            -1.212436             0.040619
C            -5.600000            -2.424871             0.009095
C            -4.900000            -3.637307             0.070140
C            -3.500000            -3.637307             0.078379
H            -5.450000            -0.259808             0.068507
H            -6.700000            -2.424871             0.069951
H            -5.450000            -4.589935             0.033077
C            -2.800000            -4.849742             0.067330
C            -1.400000            -4.849742             0.082088
H            -3.350000            -5.802370             0.088422
C            -0.700000            -6.062178             0.078267
C             0.700000            -6.062178             0.046624
H            -1.250000            -7.014806             0.078805
C             1.400000            -7.274613             0.027410
C             2.800000            -7.274613             0.006738
H             0.850000            -8.227241             0.098436
C             3.500000            -8.487049             0.046579
C             4.900000            -8.487049             0.014933
H             2.950000            -9.439677             0.037270
C             5.600000            -9.699485             0.040353
C             7.000000            -9.699485             0.055866
H             5.050000           -10.652112             0.079480
H             7.550000           -10.652112             0.026629
