74
isomero_31_39
C             0.700000             1.212436             0.012560
C            -0.700000             1.212436             0.035600
C            -1.400000             0.000000             0.083802
C            -0.700000            -1.212436             0.071899
C             0.700000            -1.212436             0.056665
C             1.400000            -0.000000             0.027968
H             1.250000             2.165064             0.058533
H            -1.250000             2.165064             0.038915
C             2.800000             0.000000             0.017321
C             1.400000            -2.424871             0.002425
C             2.800000            -2.424871             0.091460
C             3.500000            -1.212436             0.084623
H             3.350000             0.952628             0.087076
C             4.900000            -1.212436             0.075234
C             3.500000            -3.637307             0.061208
C             4.900000            -3.637307             0.020102
C             5.600000            -2.424871             0.025709
H             5.450000            -0.259808             0.000959
C             7.000000            -2.424871             0.033929
B             5.600000            -4.849742             0.074939
C             7.000000            -4.849742             0.028160
C             7.700000            -3.637307             0.000386
H             7.550000            -1.472243             0.003049
C             9.100000            -3.637307             0.069145
C             7.700000            -6.062178             0.027220
C             9.100000            -6.062178             0.009867
C             9.800000            -4.849742             0.038147
H             9.650000            -2.684679             0.063334
C            11.200000            -4.849742             0.034102
C             9.800000            -7.274613             0.063094
C            11.200000            -7.274613             0.065314
C            11.900000            -6.062178             0.091667
H            11.750000            -3.897114             0.071819
H            11.750000            -8.227241             0.011294
H            13.000000            -6.062178             0.068503
C            -2.800000             0.000000             0.023783
C            -3.500000            -1.212436             0.087821
C            -2.800000            -2.424871             0.062959
C            -1.400000            -2.424871             0.005654
H            -3.350000             0.952628             0.069965
C            -0.700000            -3.637307             0.043051
C             0.700000            -3.637307             0.023461
C             1.400000            -4.849742             0.066372
C             2.800000            -4.849742             0.059139
C             3.500000            -6.062178             0.075556
N             4.900000            -6.062178             0.032698
C             5.600000            -7.274613             0.073250
C             7.000000            -7.274613             0.002938
C             7.700000            -8.487049             0.010858
C             9.100000            -8.487049             0.087833
H             9.650000            -9.439677             0.032843
C            -4.900000            -1.212436             0.098154
C            -5.600000            -2.424871             0.059218
C            -4.900000            -3.637307             0.025951
C            -3.500000            -3.637307             0.035229
H            -5.450000            -0.259808             0.048740
H            -6.700000            -2.424871             0.027668
H            -5.450000            -4.589935             0.080207
C            -2.800000            -4.849742             0.026591
C            -1.400000            -4.849742             0.019036
H            -3.350000            -5.802370             0.074323
C            -0.700000            -6.062178             0.067953
C             0.700000            -6.062178             0.070089
H            -1.250000            -7.014806             0.016398
C             1.400000            -7.274613             0.038529
C             2.800000            -7.274613             0.063542
H             0.850000            -8.227241             0.015300
C             3.500000            -8.487049             0.016326
C             4.900000            -8.487049             0.081129
H             2.950000            -9.439677             0.082286
C             5.600000            -9.699485             0.087756
C             7.000000            -9.699485             0.011895
H             5.050000           -10.652112             0.064118
H             7.550000           -10.652112             0.056243
